* NGSPICE file created from DSP48.ext - technology: sky130A

* Black-box entry subcircuit for sky130_fd_sc_hd__fill_1 abstract view
.subckt sky130_fd_sc_hd__fill_1 VGND VNB VPB VPWR
.ends

* Black-box entry subcircuit for sky130_fd_sc_hd__decap_12 abstract view
.subckt sky130_fd_sc_hd__decap_12 VGND VNB VPB VPWR
.ends

* Black-box entry subcircuit for sky130_fd_sc_hd__decap_4 abstract view
.subckt sky130_fd_sc_hd__decap_4 VGND VNB VPB VPWR
.ends

* Black-box entry subcircuit for sky130_fd_sc_hd__o22a_4 abstract view
.subckt sky130_fd_sc_hd__o22a_4 A1 A2 B1 B2 VGND VNB VPB VPWR X
.ends

* Black-box entry subcircuit for sky130_fd_sc_hd__tapvpwrvgnd_1 abstract view
.subckt sky130_fd_sc_hd__tapvpwrvgnd_1 VGND VPWR
.ends

* Black-box entry subcircuit for sky130_fd_sc_hd__decap_8 abstract view
.subckt sky130_fd_sc_hd__decap_8 VGND VNB VPB VPWR
.ends

* Black-box entry subcircuit for sky130_fd_sc_hd__decap_3 abstract view
.subckt sky130_fd_sc_hd__decap_3 VGND VNB VPB VPWR
.ends

* Black-box entry subcircuit for sky130_fd_sc_hd__o21a_4 abstract view
.subckt sky130_fd_sc_hd__o21a_4 A1 A2 B1 VGND VNB VPB VPWR X
.ends

* Black-box entry subcircuit for sky130_fd_sc_hd__inv_2 abstract view
.subckt sky130_fd_sc_hd__inv_2 A VGND VNB VPB VPWR Y
.ends

* Black-box entry subcircuit for sky130_fd_sc_hd__or2_4 abstract view
.subckt sky130_fd_sc_hd__or2_4 A B VGND VNB VPB VPWR X
.ends

* Black-box entry subcircuit for sky130_fd_sc_hd__or4_4 abstract view
.subckt sky130_fd_sc_hd__or4_4 A B C D VGND VNB VPB VPWR X
.ends

* Black-box entry subcircuit for sky130_fd_sc_hd__a2bb2o_4 abstract view
.subckt sky130_fd_sc_hd__a2bb2o_4 A1_N A2_N B1 B2 VGND VNB VPB VPWR X
.ends

* Black-box entry subcircuit for sky130_fd_sc_hd__o21ai_4 abstract view
.subckt sky130_fd_sc_hd__o21ai_4 A1 A2 B1 VGND VNB VPB VPWR Y
.ends

* Black-box entry subcircuit for sky130_fd_sc_hd__a21oi_4 abstract view
.subckt sky130_fd_sc_hd__a21oi_4 A1 A2 B1 VGND VNB VPB VPWR Y
.ends

* Black-box entry subcircuit for sky130_fd_sc_hd__fill_2 abstract view
.subckt sky130_fd_sc_hd__fill_2 VGND VNB VPB VPWR
.ends

* Black-box entry subcircuit for sky130_fd_sc_hd__decap_6 abstract view
.subckt sky130_fd_sc_hd__decap_6 VGND VNB VPB VPWR
.ends

* Black-box entry subcircuit for sky130_fd_sc_hd__buf_2 abstract view
.subckt sky130_fd_sc_hd__buf_2 A VGND VNB VPB VPWR X
.ends

* Black-box entry subcircuit for sky130_fd_sc_hd__a211o_4 abstract view
.subckt sky130_fd_sc_hd__a211o_4 A1 A2 B1 C1 VGND VNB VPB VPWR X
.ends

* Black-box entry subcircuit for sky130_fd_sc_hd__a21o_4 abstract view
.subckt sky130_fd_sc_hd__a21o_4 A1 A2 B1 VGND VNB VPB VPWR X
.ends

* Black-box entry subcircuit for sky130_fd_sc_hd__nand2_4 abstract view
.subckt sky130_fd_sc_hd__nand2_4 A B VGND VNB VPB VPWR Y
.ends

* Black-box entry subcircuit for sky130_fd_sc_hd__and2_4 abstract view
.subckt sky130_fd_sc_hd__and2_4 A B VGND VNB VPB VPWR X
.ends

* Black-box entry subcircuit for sky130_fd_sc_hd__dfxtp_4 abstract view
.subckt sky130_fd_sc_hd__dfxtp_4 CLK D VGND VNB VPB VPWR Q
.ends

* Black-box entry subcircuit for sky130_fd_sc_hd__a32o_4 abstract view
.subckt sky130_fd_sc_hd__a32o_4 A1 A2 A3 B1 B2 VGND VNB VPB VPWR X
.ends

* Black-box entry subcircuit for sky130_fd_sc_hd__diode_2 abstract view
.subckt sky130_fd_sc_hd__diode_2 DIODE VGND VNB VPB VPWR
.ends

* Black-box entry subcircuit for sky130_fd_sc_hd__conb_1 abstract view
.subckt sky130_fd_sc_hd__conb_1 VGND VNB VPB VPWR HI LO
.ends

* Black-box entry subcircuit for sky130_fd_sc_hd__and3_4 abstract view
.subckt sky130_fd_sc_hd__and3_4 A B C VGND VNB VPB VPWR X
.ends

* Black-box entry subcircuit for sky130_fd_sc_hd__nor2_4 abstract view
.subckt sky130_fd_sc_hd__nor2_4 A B VGND VNB VPB VPWR Y
.ends

* Black-box entry subcircuit for sky130_fd_sc_hd__a21bo_4 abstract view
.subckt sky130_fd_sc_hd__a21bo_4 A1 A2 B1_N VGND VNB VPB VPWR X
.ends

* Black-box entry subcircuit for sky130_fd_sc_hd__clkbuf_1 abstract view
.subckt sky130_fd_sc_hd__clkbuf_1 A VGND VNB VPB VPWR X
.ends

* Black-box entry subcircuit for sky130_fd_sc_hd__or3_4 abstract view
.subckt sky130_fd_sc_hd__or3_4 A B C VGND VNB VPB VPWR X
.ends

* Black-box entry subcircuit for sky130_fd_sc_hd__o32a_4 abstract view
.subckt sky130_fd_sc_hd__o32a_4 A1 A2 A3 B1 B2 VGND VNB VPB VPWR X
.ends

* Black-box entry subcircuit for sky130_fd_sc_hd__and4_4 abstract view
.subckt sky130_fd_sc_hd__and4_4 A B C D VGND VNB VPB VPWR X
.ends

* Black-box entry subcircuit for sky130_fd_sc_hd__clkbuf_16 abstract view
.subckt sky130_fd_sc_hd__clkbuf_16 A VGND VNB VPB VPWR X
.ends

.subckt DSP48 io_in[0] io_in[10] io_in[11] io_in[12] io_in[13] io_in[14] io_in[15]
+ io_in[16] io_in[17] io_in[18] io_in[19] io_in[1] io_in[20] io_in[21] io_in[22] io_in[23]
+ io_in[24] io_in[25] io_in[26] io_in[27] io_in[28] io_in[29] io_in[2] io_in[30] io_in[31]
+ io_in[32] io_in[33] io_in[34] io_in[35] io_in[36] io_in[37] io_in[3] io_in[4] io_in[5]
+ io_in[6] io_in[7] io_in[8] io_in[9] io_oeb[0] io_oeb[10] io_oeb[11] io_oeb[12] io_oeb[13]
+ io_oeb[14] io_oeb[15] io_oeb[16] io_oeb[17] io_oeb[18] io_oeb[19] io_oeb[1] io_oeb[20]
+ io_oeb[21] io_oeb[22] io_oeb[23] io_oeb[24] io_oeb[25] io_oeb[26] io_oeb[27] io_oeb[28]
+ io_oeb[29] io_oeb[2] io_oeb[30] io_oeb[31] io_oeb[32] io_oeb[33] io_oeb[34] io_oeb[35]
+ io_oeb[36] io_oeb[37] io_oeb[3] io_oeb[4] io_oeb[5] io_oeb[6] io_oeb[7] io_oeb[8]
+ io_oeb[9] io_out[0] io_out[10] io_out[11] io_out[12] io_out[13] io_out[14] io_out[15]
+ io_out[16] io_out[17] io_out[18] io_out[19] io_out[1] io_out[20] io_out[21] io_out[22]
+ io_out[23] io_out[24] io_out[25] io_out[26] io_out[27] io_out[28] io_out[29] io_out[2]
+ io_out[30] io_out[31] io_out[32] io_out[33] io_out[34] io_out[35] io_out[36] io_out[37]
+ io_out[3] io_out[4] io_out[5] io_out[6] io_out[7] io_out[8] io_out[9] la_data_in[0]
+ la_data_in[100] la_data_in[101] la_data_in[102] la_data_in[103] la_data_in[104]
+ la_data_in[105] la_data_in[106] la_data_in[107] la_data_in[108] la_data_in[109]
+ la_data_in[10] la_data_in[110] la_data_in[111] la_data_in[112] la_data_in[113] la_data_in[114]
+ la_data_in[115] la_data_in[116] la_data_in[117] la_data_in[118] la_data_in[119]
+ la_data_in[11] la_data_in[120] la_data_in[121] la_data_in[122] la_data_in[123] la_data_in[124]
+ la_data_in[125] la_data_in[126] la_data_in[127] la_data_in[12] la_data_in[13] la_data_in[14]
+ la_data_in[15] la_data_in[16] la_data_in[17] la_data_in[18] la_data_in[19] la_data_in[1]
+ la_data_in[20] la_data_in[21] la_data_in[22] la_data_in[23] la_data_in[24] la_data_in[25]
+ la_data_in[26] la_data_in[27] la_data_in[28] la_data_in[29] la_data_in[2] la_data_in[30]
+ la_data_in[31] la_data_in[32] la_data_in[33] la_data_in[34] la_data_in[35] la_data_in[36]
+ la_data_in[37] la_data_in[38] la_data_in[39] la_data_in[3] la_data_in[40] la_data_in[41]
+ la_data_in[42] la_data_in[43] la_data_in[44] la_data_in[45] la_data_in[46] la_data_in[47]
+ la_data_in[48] la_data_in[49] la_data_in[4] la_data_in[50] la_data_in[51] la_data_in[52]
+ la_data_in[53] la_data_in[54] la_data_in[55] la_data_in[56] la_data_in[57] la_data_in[58]
+ la_data_in[59] la_data_in[5] la_data_in[60] la_data_in[61] la_data_in[62] la_data_in[63]
+ la_data_in[64] la_data_in[65] la_data_in[66] la_data_in[67] la_data_in[68] la_data_in[69]
+ la_data_in[6] la_data_in[70] la_data_in[71] la_data_in[72] la_data_in[73] la_data_in[74]
+ la_data_in[75] la_data_in[76] la_data_in[77] la_data_in[78] la_data_in[79] la_data_in[7]
+ la_data_in[80] la_data_in[81] la_data_in[82] la_data_in[83] la_data_in[84] la_data_in[85]
+ la_data_in[86] la_data_in[87] la_data_in[88] la_data_in[89] la_data_in[8] la_data_in[90]
+ la_data_in[91] la_data_in[92] la_data_in[93] la_data_in[94] la_data_in[95] la_data_in[96]
+ la_data_in[97] la_data_in[98] la_data_in[99] la_data_in[9] user_clock2 wb_ACK wb_ADR[0]
+ wb_ADR[10] wb_ADR[11] wb_ADR[12] wb_ADR[13] wb_ADR[14] wb_ADR[15] wb_ADR[16] wb_ADR[17]
+ wb_ADR[18] wb_ADR[19] wb_ADR[1] wb_ADR[20] wb_ADR[21] wb_ADR[22] wb_ADR[23] wb_ADR[24]
+ wb_ADR[25] wb_ADR[26] wb_ADR[27] wb_ADR[28] wb_ADR[29] wb_ADR[2] wb_ADR[30] wb_ADR[31]
+ wb_ADR[3] wb_ADR[4] wb_ADR[5] wb_ADR[6] wb_ADR[7] wb_ADR[8] wb_ADR[9] wb_CYC wb_DAT_MISO[0]
+ wb_DAT_MISO[10] wb_DAT_MISO[11] wb_DAT_MISO[12] wb_DAT_MISO[13] wb_DAT_MISO[14]
+ wb_DAT_MISO[15] wb_DAT_MISO[16] wb_DAT_MISO[17] wb_DAT_MISO[18] wb_DAT_MISO[19]
+ wb_DAT_MISO[1] wb_DAT_MISO[20] wb_DAT_MISO[21] wb_DAT_MISO[22] wb_DAT_MISO[23] wb_DAT_MISO[24]
+ wb_DAT_MISO[25] wb_DAT_MISO[26] wb_DAT_MISO[27] wb_DAT_MISO[28] wb_DAT_MISO[29]
+ wb_DAT_MISO[2] wb_DAT_MISO[30] wb_DAT_MISO[31] wb_DAT_MISO[3] wb_DAT_MISO[4] wb_DAT_MISO[5]
+ wb_DAT_MISO[6] wb_DAT_MISO[7] wb_DAT_MISO[8] wb_DAT_MISO[9] wb_DAT_MOSI[0] wb_DAT_MOSI[10]
+ wb_DAT_MOSI[11] wb_DAT_MOSI[12] wb_DAT_MOSI[13] wb_DAT_MOSI[14] wb_DAT_MOSI[15]
+ wb_DAT_MOSI[16] wb_DAT_MOSI[17] wb_DAT_MOSI[18] wb_DAT_MOSI[19] wb_DAT_MOSI[1] wb_DAT_MOSI[20]
+ wb_DAT_MOSI[21] wb_DAT_MOSI[22] wb_DAT_MOSI[23] wb_DAT_MOSI[24] wb_DAT_MOSI[25]
+ wb_DAT_MOSI[26] wb_DAT_MOSI[27] wb_DAT_MOSI[28] wb_DAT_MOSI[29] wb_DAT_MOSI[2] wb_DAT_MOSI[30]
+ wb_DAT_MOSI[31] wb_DAT_MOSI[3] wb_DAT_MOSI[4] wb_DAT_MOSI[5] wb_DAT_MOSI[6] wb_DAT_MOSI[7]
+ wb_DAT_MOSI[8] wb_DAT_MOSI[9] wb_SEL wb_STB wb_WE wb_clk_i wb_rst_i vccd1 vssd1
+ vccd2_uq0 vccd2 vccd2_uq1 vccd2_uq2 vssd2_uq0 vssd2 vssd2_uq1 vssd2_uq2 vdda1_uq0
+ vdda1 vdda1_uq1 vdda1_uq2 vssa1_uq0 vssa1 vssa1_uq1 vssa1_uq2 vdda2_uq0 vdda2 vdda2_uq1
+ vdda2_uq2 vssa2_uq0 vssa2 vssa2_uq1 vssa2_uq2
XFILLER_80_1276 vssd1 vssd1 vccd1 vccd1 sky130_fd_sc_hd__fill_1
XFILLER_27_428 vssd1 vssd1 vccd1 vccd1 sky130_fd_sc_hd__decap_12
XFILLER_94_383 vssd1 vssd1 vccd1 vccd1 sky130_fd_sc_hd__fill_1
XFILLER_199_208 vssd1 vssd1 vccd1 vccd1 sky130_fd_sc_hd__decap_4
XFILLER_82_556 vssd1 vssd1 vccd1 vccd1 sky130_fd_sc_hd__decap_12
XFILLER_208_581 vssd1 vssd1 vccd1 vccd1 sky130_fd_sc_hd__decap_12
X_6914_ _6861_/Y _6862_/Y _6863_/X _6913_/X vssd1 vssd1 vccd1 vccd1 _6914_/X sky130_fd_sc_hd__o22a_4
XPHY_3109 vssd1 vccd1 sky130_fd_sc_hd__tapvpwrvgnd_1
XFILLER_36_973 vssd1 vssd1 vccd1 vccd1 sky130_fd_sc_hd__decap_12
XFILLER_74_1014 vssd1 vssd1 vccd1 vccd1 sky130_fd_sc_hd__decap_12
XFILLER_23_623 vssd1 vssd1 vccd1 vccd1 sky130_fd_sc_hd__decap_8
XFILLER_63_792 vssd1 vssd1 vccd1 vccd1 sky130_fd_sc_hd__fill_1
XPHY_2408 vssd1 vccd1 sky130_fd_sc_hd__tapvpwrvgnd_1
XFILLER_39_1156 vssd1 vssd1 vccd1 vccd1 sky130_fd_sc_hd__decap_3
X_6845_ _6790_/X _6843_/X _6844_/Y vssd1 vssd1 vccd1 vccd1 _6845_/X sky130_fd_sc_hd__o21a_4
XPHY_2419 vssd1 vccd1 sky130_fd_sc_hd__tapvpwrvgnd_1
XFILLER_23_645 vssd1 vssd1 vccd1 vccd1 sky130_fd_sc_hd__decap_12
XFILLER_195_403 vssd1 vssd1 vccd1 vccd1 sky130_fd_sc_hd__decap_12
XFILLER_35_1009 vssd1 vssd1 vccd1 vccd1 sky130_fd_sc_hd__decap_8
XPHY_1707 vssd1 vccd1 sky130_fd_sc_hd__tapvpwrvgnd_1
XFILLER_74_1069 vssd1 vssd1 vccd1 vccd1 sky130_fd_sc_hd__decap_12
XFILLER_211_757 vssd1 vssd1 vccd1 vccd1 sky130_fd_sc_hd__decap_12
XPHY_1718 vssd1 vccd1 sky130_fd_sc_hd__tapvpwrvgnd_1
XFILLER_196_959 vssd1 vssd1 vccd1 vccd1 sky130_fd_sc_hd__decap_12
XFILLER_167_127 vssd1 vssd1 vccd1 vccd1 sky130_fd_sc_hd__fill_1
XFILLER_22_166 vssd1 vssd1 vccd1 vccd1 sky130_fd_sc_hd__decap_12
XPHY_1729 vssd1 vccd1 sky130_fd_sc_hd__tapvpwrvgnd_1
X_6776_ la_data_in[68] vssd1 vssd1 vccd1 vccd1 _6776_/Y sky130_fd_sc_hd__inv_2
X_3988_ _7627_/Q vssd1 vssd1 vccd1 vccd1 _4413_/A sky130_fd_sc_hd__inv_2
XFILLER_149_842 vssd1 vssd1 vccd1 vccd1 sky130_fd_sc_hd__decap_12
X_5727_ _5725_/Y _5726_/X vssd1 vssd1 vccd1 vccd1 _5727_/X sky130_fd_sc_hd__or2_4
XFILLER_176_683 vssd1 vssd1 vccd1 vccd1 sky130_fd_sc_hd__decap_12
XFILLER_163_300 vssd1 vssd1 vccd1 vccd1 sky130_fd_sc_hd__decap_4
XFILLER_202_1069 vssd1 vssd1 vccd1 vccd1 sky130_fd_sc_hd__decap_12
X_5658_ _5658_/A _5658_/B _3803_/X _5658_/D vssd1 vssd1 vccd1 vccd1 _5658_/X sky130_fd_sc_hd__or4_4
XFILLER_108_249 vssd1 vssd1 vccd1 vccd1 sky130_fd_sc_hd__decap_12
X_4609_ _4591_/X _4608_/X _4591_/X _4608_/X vssd1 vssd1 vccd1 vccd1 _4609_/X sky130_fd_sc_hd__a2bb2o_4
XFILLER_11_1042 vssd1 vssd1 vccd1 vccd1 sky130_fd_sc_hd__decap_12
XFILLER_190_141 vssd1 vssd1 vccd1 vccd1 sky130_fd_sc_hd__decap_12
XFILLER_151_506 vssd1 vssd1 vccd1 vccd1 sky130_fd_sc_hd__decap_3
X_5589_ _5576_/X _5581_/X _5587_/X _5588_/X vssd1 vssd1 vccd1 vccd1 _5589_/X sky130_fd_sc_hd__o22a_4
XFILLER_11_1075 vssd1 vssd1 vccd1 vccd1 sky130_fd_sc_hd__decap_12
XFILLER_117_22 vssd1 vssd1 vccd1 vccd1 sky130_fd_sc_hd__decap_12
X_7328_ _5625_/A _7316_/X _7327_/X vssd1 vssd1 vccd1 vccd1 wb_DAT_MISO[9] sky130_fd_sc_hd__o21ai_4
XFILLER_117_794 vssd1 vssd1 vccd1 vccd1 sky130_fd_sc_hd__decap_12
XFILLER_105_956 vssd1 vssd1 vccd1 vccd1 sky130_fd_sc_hd__decap_12
XFILLER_137_1233 vssd1 vssd1 vccd1 vccd1 sky130_fd_sc_hd__decap_12
XFILLER_77_15 vssd1 vssd1 vccd1 vccd1 sky130_fd_sc_hd__decap_12
X_7259_ _7243_/X _7258_/X _7165_/X vssd1 vssd1 vccd1 vccd1 _7259_/Y sky130_fd_sc_hd__a21oi_4
XFILLER_105_989 vssd1 vssd1 vccd1 vccd1 sky130_fd_sc_hd__decap_12
XFILLER_120_915 vssd1 vssd1 vccd1 vccd1 sky130_fd_sc_hd__decap_12
XFILLER_77_306 vssd1 vssd1 vccd1 vccd1 sky130_fd_sc_hd__decap_12
XFILLER_104_466 vssd1 vssd1 vccd1 vccd1 sky130_fd_sc_hd__decap_12
XFILLER_77_59 vssd1 vssd1 vccd1 vccd1 sky130_fd_sc_hd__fill_2
XFILLER_120_959 vssd1 vssd1 vccd1 vccd1 sky130_fd_sc_hd__decap_12
XFILLER_46_715 vssd1 vssd1 vccd1 vccd1 sky130_fd_sc_hd__decap_8
XFILLER_73_501 vssd1 vssd1 vccd1 vccd1 sky130_fd_sc_hd__decap_12
XFILLER_206_507 vssd1 vssd1 vccd1 vccd1 sky130_fd_sc_hd__decap_12
XPHY_4300 vssd1 vccd1 sky130_fd_sc_hd__tapvpwrvgnd_1
XFILLER_46_748 vssd1 vssd1 vccd1 vccd1 sky130_fd_sc_hd__decap_12
XPHY_4311 vssd1 vccd1 sky130_fd_sc_hd__tapvpwrvgnd_1
XFILLER_172_3 vssd1 vssd1 vccd1 vccd1 sky130_fd_sc_hd__decap_12
XPHY_4322 vssd1 vccd1 sky130_fd_sc_hd__tapvpwrvgnd_1
XPHY_4333 vssd1 vccd1 sky130_fd_sc_hd__tapvpwrvgnd_1
XFILLER_199_720 vssd1 vssd1 vccd1 vccd1 sky130_fd_sc_hd__decap_12
XPHY_4344 vssd1 vccd1 sky130_fd_sc_hd__tapvpwrvgnd_1
XFILLER_27_973 vssd1 vssd1 vccd1 vccd1 sky130_fd_sc_hd__decap_3
XPHY_4355 vssd1 vccd1 sky130_fd_sc_hd__tapvpwrvgnd_1
XFILLER_60_206 vssd1 vssd1 vccd1 vccd1 sky130_fd_sc_hd__decap_8
XPHY_3610 vssd1 vccd1 sky130_fd_sc_hd__tapvpwrvgnd_1
XPHY_4366 vssd1 vccd1 sky130_fd_sc_hd__tapvpwrvgnd_1
XFILLER_42_910 vssd1 vssd1 vccd1 vccd1 sky130_fd_sc_hd__decap_12
XPHY_3621 vssd1 vccd1 sky130_fd_sc_hd__tapvpwrvgnd_1
XFILLER_57_1234 vssd1 vssd1 vccd1 vccd1 sky130_fd_sc_hd__decap_12
XPHY_4377 vssd1 vccd1 sky130_fd_sc_hd__tapvpwrvgnd_1
XPHY_3632 vssd1 vccd1 sky130_fd_sc_hd__tapvpwrvgnd_1
XFILLER_54_792 vssd1 vssd1 vccd1 vccd1 sky130_fd_sc_hd__decap_12
XPHY_4388 vssd1 vccd1 sky130_fd_sc_hd__tapvpwrvgnd_1
XPHY_3643 vssd1 vccd1 sky130_fd_sc_hd__tapvpwrvgnd_1
XPHY_4399 vssd1 vccd1 sky130_fd_sc_hd__tapvpwrvgnd_1
XPHY_3654 vssd1 vccd1 sky130_fd_sc_hd__tapvpwrvgnd_1
XFILLER_26_96 vssd1 vssd1 vccd1 vccd1 sky130_fd_sc_hd__decap_12
XFILLER_13_111 vssd1 vssd1 vccd1 vccd1 sky130_fd_sc_hd__decap_8
XFILLER_42_954 vssd1 vssd1 vccd1 vccd1 sky130_fd_sc_hd__decap_12
XPHY_3665 vssd1 vccd1 sky130_fd_sc_hd__tapvpwrvgnd_1
XFILLER_41_431 vssd1 vssd1 vccd1 vccd1 sky130_fd_sc_hd__decap_12
XPHY_2920 vssd1 vccd1 sky130_fd_sc_hd__tapvpwrvgnd_1
XFILLER_144_1215 vssd1 vssd1 vccd1 vccd1 sky130_fd_sc_hd__decap_12
XPHY_3676 vssd1 vccd1 sky130_fd_sc_hd__tapvpwrvgnd_1
XPHY_2931 vssd1 vccd1 sky130_fd_sc_hd__tapvpwrvgnd_1
XPHY_2942 vssd1 vccd1 sky130_fd_sc_hd__tapvpwrvgnd_1
XPHY_3687 vssd1 vccd1 sky130_fd_sc_hd__tapvpwrvgnd_1
XFILLER_14_678 vssd1 vssd1 vccd1 vccd1 sky130_fd_sc_hd__decap_12
XPHY_3698 vssd1 vccd1 sky130_fd_sc_hd__tapvpwrvgnd_1
XPHY_2953 vssd1 vccd1 sky130_fd_sc_hd__tapvpwrvgnd_1
XFILLER_201_245 vssd1 vssd1 vccd1 vccd1 sky130_fd_sc_hd__decap_12
XPHY_2964 vssd1 vccd1 sky130_fd_sc_hd__tapvpwrvgnd_1
XPHY_2975 vssd1 vccd1 sky130_fd_sc_hd__tapvpwrvgnd_1
XPHY_2986 vssd1 vccd1 sky130_fd_sc_hd__tapvpwrvgnd_1
XPHY_2997 vssd1 vccd1 sky130_fd_sc_hd__tapvpwrvgnd_1
XFILLER_10_840 vssd1 vssd1 vccd1 vccd1 sky130_fd_sc_hd__decap_12
XFILLER_167_672 vssd1 vssd1 vccd1 vccd1 sky130_fd_sc_hd__decap_12
XFILLER_6_800 vssd1 vssd1 vccd1 vccd1 sky130_fd_sc_hd__decap_4
XFILLER_139_363 vssd1 vssd1 vccd1 vccd1 sky130_fd_sc_hd__decap_3
XFILLER_127_536 vssd1 vssd1 vccd1 vccd1 sky130_fd_sc_hd__decap_12
XFILLER_10_884 vssd1 vssd1 vccd1 vccd1 sky130_fd_sc_hd__fill_1
XFILLER_182_642 vssd1 vssd1 vccd1 vccd1 sky130_fd_sc_hd__fill_1
XFILLER_177_1013 vssd1 vssd1 vccd1 vccd1 sky130_fd_sc_hd__decap_12
XFILLER_170_804 vssd1 vssd1 vccd1 vccd1 sky130_fd_sc_hd__decap_12
XFILLER_138_1008 vssd1 vssd1 vccd1 vccd1 sky130_fd_sc_hd__decap_12
XFILLER_154_366 vssd1 vssd1 vccd1 vccd1 sky130_fd_sc_hd__fill_2
XFILLER_170_837 vssd1 vssd1 vccd1 vccd1 sky130_fd_sc_hd__decap_12
XFILLER_181_174 vssd1 vssd1 vccd1 vccd1 sky130_fd_sc_hd__decap_8
XFILLER_123_720 vssd1 vssd1 vccd1 vccd1 sky130_fd_sc_hd__decap_12
XFILLER_181_196 vssd1 vssd1 vccd1 vccd1 sky130_fd_sc_hd__decap_12
XFILLER_107_293 vssd1 vssd1 vccd1 vccd1 sky130_fd_sc_hd__decap_12
XFILLER_69_818 vssd1 vssd1 vccd1 vccd1 sky130_fd_sc_hd__decap_12
XFILLER_151_1208 vssd1 vssd1 vccd1 vccd1 sky130_fd_sc_hd__decap_12
XFILLER_1_560 vssd1 vssd1 vccd1 vccd1 sky130_fd_sc_hd__decap_8
XFILLER_68_328 vssd1 vssd1 vccd1 vccd1 sky130_fd_sc_hd__decap_8
XFILLER_209_301 vssd1 vssd1 vccd1 vccd1 sky130_fd_sc_hd__decap_4
XFILLER_95_147 vssd1 vssd1 vccd1 vccd1 sky130_fd_sc_hd__decap_12
XFILLER_7_1176 vssd1 vssd1 vccd1 vccd1 sky130_fd_sc_hd__fill_1
XFILLER_209_345 vssd1 vssd1 vccd1 vccd1 sky130_fd_sc_hd__decap_6
XFILLER_64_501 vssd1 vssd1 vccd1 vccd1 sky130_fd_sc_hd__decap_12
XFILLER_49_586 vssd1 vssd1 vccd1 vccd1 sky130_fd_sc_hd__decap_12
XFILLER_92_821 vssd1 vssd1 vccd1 vccd1 sky130_fd_sc_hd__decap_3
XFILLER_97_1025 vssd1 vssd1 vccd1 vccd1 sky130_fd_sc_hd__decap_12
XFILLER_209_367 vssd1 vssd1 vccd1 vccd1 sky130_fd_sc_hd__decap_6
XFILLER_190_93 vssd1 vssd1 vccd1 vccd1 sky130_fd_sc_hd__decap_12
XFILLER_188_1142 vssd1 vssd1 vccd1 vccd1 sky130_fd_sc_hd__decap_12
XFILLER_209_389 vssd1 vssd1 vccd1 vccd1 sky130_fd_sc_hd__decap_12
XFILLER_64_556 vssd1 vssd1 vccd1 vccd1 sky130_fd_sc_hd__fill_2
XFILLER_91_342 vssd1 vssd1 vccd1 vccd1 sky130_fd_sc_hd__decap_6
XFILLER_36_269 vssd1 vssd1 vccd1 vccd1 sky130_fd_sc_hd__decap_6
XFILLER_91_364 vssd1 vssd1 vccd1 vccd1 sky130_fd_sc_hd__fill_2
XFILLER_92_898 vssd1 vssd1 vccd1 vccd1 sky130_fd_sc_hd__decap_12
X_4960_ _4933_/X _4949_/X _4933_/X _4949_/X vssd1 vssd1 vccd1 vccd1 _4960_/X sky130_fd_sc_hd__a2bb2o_4
XFILLER_18_995 vssd1 vssd1 vccd1 vccd1 sky130_fd_sc_hd__decap_12
XFILLER_45_781 vssd1 vssd1 vccd1 vccd1 sky130_fd_sc_hd__decap_12
XFILLER_33_932 vssd1 vssd1 vccd1 vccd1 sky130_fd_sc_hd__decap_12
XFILLER_205_562 vssd1 vssd1 vccd1 vccd1 sky130_fd_sc_hd__decap_12
X_3911_ _5758_/B vssd1 vssd1 vccd1 vccd1 _3911_/X sky130_fd_sc_hd__buf_2
X_4891_ _4890_/X vssd1 vssd1 vccd1 vccd1 _4891_/Y sky130_fd_sc_hd__inv_2
XFILLER_177_403 vssd1 vssd1 vccd1 vccd1 sky130_fd_sc_hd__decap_6
X_6630_ _6568_/X _6628_/X _6629_/Y vssd1 vssd1 vccd1 vccd1 _6630_/X sky130_fd_sc_hd__o21a_4
XFILLER_178_959 vssd1 vssd1 vccd1 vccd1 sky130_fd_sc_hd__decap_12
X_3842_ _5757_/A _3831_/X _3822_/X _3841_/Y vssd1 vssd1 vccd1 vccd1 _3842_/X sky130_fd_sc_hd__a211o_4
XFILLER_60_784 vssd1 vssd1 vccd1 vccd1 sky130_fd_sc_hd__decap_12
XFILLER_177_469 vssd1 vssd1 vccd1 vccd1 sky130_fd_sc_hd__fill_1
X_6561_ la_data_in[98] vssd1 vssd1 vccd1 vccd1 _6561_/Y sky130_fd_sc_hd__inv_2
XFILLER_158_661 vssd1 vssd1 vccd1 vccd1 sky130_fd_sc_hd__fill_1
X_3773_ _3772_/X vssd1 vssd1 vccd1 vccd1 _3773_/Y sky130_fd_sc_hd__inv_2
XFILLER_121_1001 vssd1 vssd1 vccd1 vccd1 sky130_fd_sc_hd__decap_12
XFILLER_164_119 vssd1 vssd1 vccd1 vccd1 sky130_fd_sc_hd__decap_12
XFILLER_146_823 vssd1 vssd1 vccd1 vccd1 sky130_fd_sc_hd__fill_1
X_5512_ _5512_/A _5511_/X vssd1 vssd1 vccd1 vccd1 _5512_/X sky130_fd_sc_hd__or2_4
XFILLER_185_480 vssd1 vssd1 vccd1 vccd1 sky130_fd_sc_hd__decap_8
XFILLER_157_182 vssd1 vssd1 vccd1 vccd1 sky130_fd_sc_hd__fill_1
X_6492_ _6471_/X _6490_/X _6491_/Y vssd1 vssd1 vccd1 vccd1 _6492_/X sky130_fd_sc_hd__o21a_4
XFILLER_118_569 vssd1 vssd1 vccd1 vccd1 sky130_fd_sc_hd__decap_8
XFILLER_195_1135 vssd1 vssd1 vccd1 vccd1 sky130_fd_sc_hd__decap_12
XFILLER_172_141 vssd1 vssd1 vccd1 vccd1 sky130_fd_sc_hd__decap_12
X_5443_ _5430_/X _5435_/X _5441_/X _5442_/X vssd1 vssd1 vccd1 vccd1 _5443_/X sky130_fd_sc_hd__o22a_4
XFILLER_161_848 vssd1 vssd1 vccd1 vccd1 sky130_fd_sc_hd__decap_6
XFILLER_133_539 vssd1 vssd1 vccd1 vccd1 sky130_fd_sc_hd__decap_8
XFILLER_172_196 vssd1 vssd1 vccd1 vccd1 sky130_fd_sc_hd__decap_12
X_5374_ _5360_/X _5364_/X _5362_/X vssd1 vssd1 vccd1 vccd1 _5374_/X sky130_fd_sc_hd__o21a_4
XFILLER_114_731 vssd1 vssd1 vccd1 vccd1 sky130_fd_sc_hd__decap_12
X_7113_ la_data_in[1] vssd1 vssd1 vccd1 vccd1 _7113_/Y sky130_fd_sc_hd__inv_2
X_4325_ _4270_/X _4322_/X _4323_/X _4324_/X vssd1 vssd1 vccd1 vccd1 _4388_/B sky130_fd_sc_hd__o22a_4
XFILLER_114_764 vssd1 vssd1 vccd1 vccd1 sky130_fd_sc_hd__decap_12
XFILLER_141_550 vssd1 vssd1 vccd1 vccd1 sky130_fd_sc_hd__decap_12
XFILLER_59_306 vssd1 vssd1 vccd1 vccd1 sky130_fd_sc_hd__decap_6
XFILLER_101_403 vssd1 vssd1 vccd1 vccd1 sky130_fd_sc_hd__decap_12
X_7044_ _6977_/A la_data_in[42] _6979_/X vssd1 vssd1 vccd1 vccd1 _7044_/X sky130_fd_sc_hd__a21o_4
X_4256_ _4253_/X _4255_/X _4253_/X _4255_/X vssd1 vssd1 vccd1 vccd1 _4256_/X sky130_fd_sc_hd__a2bb2o_4
XFILLER_102_959 vssd1 vssd1 vccd1 vccd1 sky130_fd_sc_hd__decap_12
XFILLER_41_1013 vssd1 vssd1 vccd1 vccd1 sky130_fd_sc_hd__decap_4
XFILLER_132_1130 vssd1 vssd1 vccd1 vccd1 sky130_fd_sc_hd__decap_12
XFILLER_41_1035 vssd1 vssd1 vccd1 vccd1 sky130_fd_sc_hd__fill_2
XFILLER_28_715 vssd1 vssd1 vccd1 vccd1 sky130_fd_sc_hd__decap_12
X_4187_ _3674_/X _3975_/X _4067_/X _3984_/X vssd1 vssd1 vccd1 vccd1 _4187_/X sky130_fd_sc_hd__or4_4
XFILLER_55_501 vssd1 vssd1 vccd1 vccd1 sky130_fd_sc_hd__decap_12
XFILLER_94_191 vssd1 vssd1 vccd1 vccd1 sky130_fd_sc_hd__decap_12
XFILLER_43_707 vssd1 vssd1 vccd1 vccd1 sky130_fd_sc_hd__decap_12
XFILLER_27_269 vssd1 vssd1 vccd1 vccd1 sky130_fd_sc_hd__decap_12
XPHY_905 vssd1 vccd1 sky130_fd_sc_hd__tapvpwrvgnd_1
XPHY_2205 vssd1 vccd1 sky130_fd_sc_hd__tapvpwrvgnd_1
XFILLER_179_39 vssd1 vssd1 vccd1 vccd1 sky130_fd_sc_hd__decap_12
XPHY_916 vssd1 vccd1 sky130_fd_sc_hd__tapvpwrvgnd_1
XPHY_2216 vssd1 vccd1 sky130_fd_sc_hd__tapvpwrvgnd_1
XPHY_927 vssd1 vccd1 sky130_fd_sc_hd__tapvpwrvgnd_1
XFILLER_211_521 vssd1 vssd1 vccd1 vccd1 sky130_fd_sc_hd__decap_6
XPHY_938 vssd1 vccd1 sky130_fd_sc_hd__tapvpwrvgnd_1
XPHY_2227 vssd1 vccd1 sky130_fd_sc_hd__tapvpwrvgnd_1
XPHY_949 vssd1 vccd1 sky130_fd_sc_hd__tapvpwrvgnd_1
XPHY_2238 vssd1 vccd1 sky130_fd_sc_hd__tapvpwrvgnd_1
XPHY_1504 vssd1 vccd1 sky130_fd_sc_hd__tapvpwrvgnd_1
XPHY_2249 vssd1 vccd1 sky130_fd_sc_hd__tapvpwrvgnd_1
X_6828_ _6800_/A _6799_/X vssd1 vssd1 vccd1 vccd1 _6829_/C sky130_fd_sc_hd__nand2_4
XFILLER_51_784 vssd1 vssd1 vccd1 vccd1 sky130_fd_sc_hd__decap_8
XPHY_1515 vssd1 vccd1 sky130_fd_sc_hd__tapvpwrvgnd_1
XFILLER_23_486 vssd1 vssd1 vccd1 vccd1 sky130_fd_sc_hd__fill_2
XPHY_1526 vssd1 vccd1 sky130_fd_sc_hd__tapvpwrvgnd_1
XPHY_1537 vssd1 vccd1 sky130_fd_sc_hd__tapvpwrvgnd_1
XPHY_1548 vssd1 vccd1 sky130_fd_sc_hd__tapvpwrvgnd_1
X_6759_ _6757_/Y _6759_/B vssd1 vssd1 vccd1 vccd1 _6759_/X sky130_fd_sc_hd__and2_4
XPHY_1559 vssd1 vccd1 sky130_fd_sc_hd__tapvpwrvgnd_1
XFILLER_183_428 vssd1 vssd1 vccd1 vccd1 sky130_fd_sc_hd__decap_12
XFILLER_149_672 vssd1 vssd1 vccd1 vccd1 sky130_fd_sc_hd__decap_12
XFILLER_195_27 vssd1 vssd1 vccd1 vccd1 sky130_fd_sc_hd__decap_12
XFILLER_136_300 vssd1 vssd1 vccd1 vccd1 sky130_fd_sc_hd__decap_8
XFILLER_12_32 vssd1 vssd1 vccd1 vccd1 sky130_fd_sc_hd__fill_1
XFILLER_109_536 vssd1 vssd1 vccd1 vccd1 sky130_fd_sc_hd__decap_12
XFILLER_164_642 vssd1 vssd1 vccd1 vccd1 sky130_fd_sc_hd__decap_12
XFILLER_12_54 vssd1 vssd1 vccd1 vccd1 sky130_fd_sc_hd__decap_12
XFILLER_104_1276 vssd1 vssd1 vccd1 vccd1 sky130_fd_sc_hd__fill_1
XFILLER_128_32 vssd1 vssd1 vccd1 vccd1 sky130_fd_sc_hd__decap_3
XFILLER_109_569 vssd1 vssd1 vccd1 vccd1 sky130_fd_sc_hd__decap_12
XFILLER_152_815 vssd1 vssd1 vccd1 vccd1 sky130_fd_sc_hd__decap_8
XFILLER_192_995 vssd1 vssd1 vccd1 vccd1 sky130_fd_sc_hd__decap_12
XFILLER_152_837 vssd1 vssd1 vccd1 vccd1 sky130_fd_sc_hd__decap_12
XFILLER_151_325 vssd1 vssd1 vccd1 vccd1 sky130_fd_sc_hd__decap_8
XFILLER_163_196 vssd1 vssd1 vccd1 vccd1 sky130_fd_sc_hd__decap_12
XFILLER_132_561 vssd1 vssd1 vccd1 vccd1 sky130_fd_sc_hd__decap_12
XFILLER_104_274 vssd1 vssd1 vccd1 vccd1 sky130_fd_sc_hd__fill_1
XFILLER_137_1074 vssd1 vssd1 vccd1 vccd1 sky130_fd_sc_hd__decap_12
XFILLER_24_1211 vssd1 vssd1 vccd1 vccd1 sky130_fd_sc_hd__decap_3
XFILLER_77_147 vssd1 vssd1 vccd1 vccd1 sky130_fd_sc_hd__decap_12
XFILLER_144_75 vssd1 vssd1 vccd1 vccd1 sky130_fd_sc_hd__decap_12
XFILLER_93_607 vssd1 vssd1 vccd1 vccd1 sky130_fd_sc_hd__decap_3
XFILLER_24_1233 vssd1 vssd1 vccd1 vccd1 sky130_fd_sc_hd__decap_12
XFILLER_46_501 vssd1 vssd1 vccd1 vccd1 sky130_fd_sc_hd__decap_12
XFILLER_59_884 vssd1 vssd1 vccd1 vccd1 sky130_fd_sc_hd__decap_8
XFILLER_150_1252 vssd1 vssd1 vccd1 vccd1 sky130_fd_sc_hd__decap_12
XFILLER_74_821 vssd1 vssd1 vccd1 vccd1 sky130_fd_sc_hd__decap_3
XFILLER_92_128 vssd1 vssd1 vccd1 vccd1 sky130_fd_sc_hd__decap_12
XFILLER_19_748 vssd1 vssd1 vccd1 vccd1 sky130_fd_sc_hd__decap_12
XFILLER_37_62 vssd1 vssd1 vccd1 vccd1 sky130_fd_sc_hd__decap_12
XFILLER_100_491 vssd1 vssd1 vccd1 vccd1 sky130_fd_sc_hd__decap_3
XFILLER_73_342 vssd1 vssd1 vccd1 vccd1 sky130_fd_sc_hd__decap_12
XFILLER_206_337 vssd1 vssd1 vccd1 vccd1 sky130_fd_sc_hd__decap_12
XFILLER_111_1269 vssd1 vssd1 vccd1 vccd1 sky130_fd_sc_hd__decap_8
XPHY_4130 vssd1 vccd1 sky130_fd_sc_hd__tapvpwrvgnd_1
XFILLER_74_898 vssd1 vssd1 vccd1 vccd1 sky130_fd_sc_hd__decap_12
XPHY_4141 vssd1 vccd1 sky130_fd_sc_hd__tapvpwrvgnd_1
XPHY_4152 vssd1 vccd1 sky130_fd_sc_hd__tapvpwrvgnd_1
XPHY_4163 vssd1 vccd1 sky130_fd_sc_hd__tapvpwrvgnd_1
XFILLER_61_537 vssd1 vssd1 vccd1 vccd1 sky130_fd_sc_hd__decap_12
XFILLER_199_550 vssd1 vssd1 vccd1 vccd1 sky130_fd_sc_hd__decap_12
XPHY_4174 vssd1 vccd1 sky130_fd_sc_hd__tapvpwrvgnd_1
XFILLER_15_943 vssd1 vssd1 vccd1 vccd1 sky130_fd_sc_hd__decap_12
XPHY_4185 vssd1 vccd1 sky130_fd_sc_hd__tapvpwrvgnd_1
XFILLER_26_280 vssd1 vssd1 vccd1 vccd1 sky130_fd_sc_hd__fill_1
XPHY_3440 vssd1 vccd1 sky130_fd_sc_hd__tapvpwrvgnd_1
XFILLER_183_1050 vssd1 vssd1 vccd1 vccd1 sky130_fd_sc_hd__decap_12
XPHY_3451 vssd1 vccd1 sky130_fd_sc_hd__tapvpwrvgnd_1
XPHY_4196 vssd1 vccd1 sky130_fd_sc_hd__tapvpwrvgnd_1
XFILLER_159_414 vssd1 vssd1 vccd1 vccd1 sky130_fd_sc_hd__decap_12
XFILLER_14_453 vssd1 vssd1 vccd1 vccd1 sky130_fd_sc_hd__decap_4
XFILLER_42_762 vssd1 vssd1 vccd1 vccd1 sky130_fd_sc_hd__fill_1
XPHY_3462 vssd1 vccd1 sky130_fd_sc_hd__tapvpwrvgnd_1
XFILLER_202_532 vssd1 vssd1 vccd1 vccd1 sky130_fd_sc_hd__decap_12
XFILLER_30_913 vssd1 vssd1 vccd1 vccd1 sky130_fd_sc_hd__decap_12
XPHY_3473 vssd1 vccd1 sky130_fd_sc_hd__tapvpwrvgnd_1
XFILLER_187_745 vssd1 vssd1 vccd1 vccd1 sky130_fd_sc_hd__decap_12
XPHY_3484 vssd1 vccd1 sky130_fd_sc_hd__tapvpwrvgnd_1
XPHY_2750 vssd1 vccd1 sky130_fd_sc_hd__tapvpwrvgnd_1
XPHY_3495 vssd1 vccd1 sky130_fd_sc_hd__tapvpwrvgnd_1
XFILLER_42_795 vssd1 vssd1 vccd1 vccd1 sky130_fd_sc_hd__decap_12
XPHY_2761 vssd1 vccd1 sky130_fd_sc_hd__tapvpwrvgnd_1
XFILLER_144_1056 vssd1 vssd1 vccd1 vccd1 sky130_fd_sc_hd__decap_12
XFILLER_53_94 vssd1 vssd1 vccd1 vccd1 sky130_fd_sc_hd__fill_2
XPHY_2772 vssd1 vccd1 sky130_fd_sc_hd__tapvpwrvgnd_1
XPHY_2783 vssd1 vccd1 sky130_fd_sc_hd__tapvpwrvgnd_1
XFILLER_186_266 vssd1 vssd1 vccd1 vccd1 sky130_fd_sc_hd__decap_8
XPHY_2794 vssd1 vccd1 sky130_fd_sc_hd__tapvpwrvgnd_1
XFILLER_128_812 vssd1 vssd1 vccd1 vccd1 sky130_fd_sc_hd__decap_12
XFILLER_186_288 vssd1 vssd1 vccd1 vccd1 sky130_fd_sc_hd__decap_4
XFILLER_70_1264 vssd1 vssd1 vccd1 vccd1 sky130_fd_sc_hd__decap_12
XFILLER_139_171 vssd1 vssd1 vccd1 vccd1 sky130_fd_sc_hd__decap_12
XFILLER_183_940 vssd1 vssd1 vccd1 vccd1 sky130_fd_sc_hd__decap_12
XFILLER_155_642 vssd1 vssd1 vccd1 vccd1 sky130_fd_sc_hd__decap_12
XFILLER_182_450 vssd1 vssd1 vccd1 vccd1 sky130_fd_sc_hd__decap_8
XFILLER_154_141 vssd1 vssd1 vccd1 vccd1 sky130_fd_sc_hd__decap_12
XFILLER_170_634 vssd1 vssd1 vccd1 vccd1 sky130_fd_sc_hd__decap_6
XFILLER_182_494 vssd1 vssd1 vccd1 vccd1 sky130_fd_sc_hd__decap_12
XFILLER_154_185 vssd1 vssd1 vccd1 vccd1 sky130_fd_sc_hd__decap_3
XFILLER_29_1111 vssd1 vssd1 vccd1 vccd1 sky130_fd_sc_hd__decap_6
XFILLER_142_347 vssd1 vssd1 vccd1 vccd1 sky130_fd_sc_hd__decap_12
XFILLER_170_678 vssd1 vssd1 vccd1 vccd1 sky130_fd_sc_hd__decap_12
XFILLER_69_604 vssd1 vssd1 vccd1 vccd1 sky130_fd_sc_hd__decap_6
XFILLER_123_550 vssd1 vssd1 vccd1 vccd1 sky130_fd_sc_hd__decap_12
XFILLER_190_1032 vssd1 vssd1 vccd1 vccd1 sky130_fd_sc_hd__decap_12
X_4110_ _4098_/X _4101_/X _4098_/X _4101_/X vssd1 vssd1 vccd1 vccd1 _4110_/X sky130_fd_sc_hd__a2bb2o_4
XFILLER_96_434 vssd1 vssd1 vccd1 vccd1 sky130_fd_sc_hd__decap_12
XFILLER_155_1196 vssd1 vssd1 vccd1 vccd1 sky130_fd_sc_hd__decap_12
XFILLER_69_659 vssd1 vssd1 vccd1 vccd1 sky130_fd_sc_hd__decap_12
X_5090_ _5074_/X _5078_/X _5074_/X _5078_/X vssd1 vssd1 vccd1 vccd1 _5090_/X sky130_fd_sc_hd__a2bb2o_4
XFILLER_151_1038 vssd1 vssd1 vccd1 vccd1 sky130_fd_sc_hd__decap_12
XFILLER_96_467 vssd1 vssd1 vccd1 vccd1 sky130_fd_sc_hd__fill_2
XFILLER_56_309 vssd1 vssd1 vccd1 vccd1 sky130_fd_sc_hd__decap_8
X_4041_ _4938_/A vssd1 vssd1 vccd1 vccd1 _4715_/B sky130_fd_sc_hd__buf_2
XFILLER_110_266 vssd1 vssd1 vccd1 vccd1 sky130_fd_sc_hd__decap_8
XFILLER_37_501 vssd1 vssd1 vccd1 vccd1 sky130_fd_sc_hd__decap_8
XFILLER_209_142 vssd1 vssd1 vccd1 vccd1 sky130_fd_sc_hd__decap_12
XFILLER_204_56 vssd1 vssd1 vccd1 vccd1 sky130_fd_sc_hd__decap_12
XFILLER_49_383 vssd1 vssd1 vccd1 vccd1 sky130_fd_sc_hd__decap_12
XFILLER_209_175 vssd1 vssd1 vccd1 vccd1 sky130_fd_sc_hd__decap_8
XFILLER_65_876 vssd1 vssd1 vccd1 vccd1 sky130_fd_sc_hd__decap_12
XFILLER_80_802 vssd1 vssd1 vccd1 vccd1 sky130_fd_sc_hd__decap_8
X_5992_ _5990_/X _5991_/X _5990_/X _5991_/X vssd1 vssd1 vccd1 vccd1 _5992_/X sky130_fd_sc_hd__a2bb2o_4
XFILLER_80_846 vssd1 vssd1 vccd1 vccd1 sky130_fd_sc_hd__decap_12
X_4943_ _4942_/X vssd1 vssd1 vccd1 vccd1 _4945_/A sky130_fd_sc_hd__inv_2