* NGSPICE file created from user_proj_example.ext - technology: sky130A

* Black-box entry subcircuit for sky130_fd_sc_hd__fill_1 abstract view
.subckt sky130_fd_sc_hd__fill_1 VGND VPWR
.ends

* Black-box entry subcircuit for sky130_fd_sc_hd__decap_12 abstract view
.subckt sky130_fd_sc_hd__decap_12 VGND VPWR
.ends

* Black-box entry subcircuit for sky130_fd_sc_hd__fill_2 abstract view
.subckt sky130_fd_sc_hd__fill_2 VGND VPWR
.ends

* Black-box entry subcircuit for sky130_fd_sc_hd__decap_8 abstract view
.subckt sky130_fd_sc_hd__decap_8 VGND VPWR
.ends

* Black-box entry subcircuit for sky130_fd_sc_hd__nand2_4 abstract view
.subckt sky130_fd_sc_hd__nand2_4 A B Y VGND VPWR
.ends

* Black-box entry subcircuit for sky130_fd_sc_hd__tapvpwrvgnd_1 abstract view
.subckt sky130_fd_sc_hd__tapvpwrvgnd_1 VGND VPWR
.ends

* Black-box entry subcircuit for sky130_fd_sc_hd__and2_4 abstract view
.subckt sky130_fd_sc_hd__and2_4 A B X VGND VPWR
.ends

* Black-box entry subcircuit for sky130_fd_sc_hd__inv_8 abstract view
.subckt sky130_fd_sc_hd__inv_8 A Y VGND VPWR
.ends

* Black-box entry subcircuit for sky130_fd_sc_hd__a21bo_4 abstract view
.subckt sky130_fd_sc_hd__a21bo_4 A1 A2 B1_N X VGND VPWR
.ends

* Black-box entry subcircuit for sky130_fd_sc_hd__or2_4 abstract view
.subckt sky130_fd_sc_hd__or2_4 A B X VGND VPWR
.ends

* Black-box entry subcircuit for sky130_fd_sc_hd__decap_3 abstract view
.subckt sky130_fd_sc_hd__decap_3 VGND VPWR
.ends

* Black-box entry subcircuit for sky130_fd_sc_hd__buf_1 abstract view
.subckt sky130_fd_sc_hd__buf_1 A X VGND VPWR
.ends

* Black-box entry subcircuit for sky130_fd_sc_hd__decap_6 abstract view
.subckt sky130_fd_sc_hd__decap_6 VGND VPWR
.ends

* Black-box entry subcircuit for sky130_fd_sc_hd__decap_4 abstract view
.subckt sky130_fd_sc_hd__decap_4 VGND VPWR
.ends

* Black-box entry subcircuit for sky130_fd_sc_hd__a2bb2o_4 abstract view
.subckt sky130_fd_sc_hd__a2bb2o_4 A1_N A2_N B1 B2 X VGND VPWR
.ends

* Black-box entry subcircuit for sky130_fd_sc_hd__and3_4 abstract view
.subckt sky130_fd_sc_hd__and3_4 A B C X VGND VPWR
.ends

* Black-box entry subcircuit for sky130_fd_sc_hd__o22a_4 abstract view
.subckt sky130_fd_sc_hd__o22a_4 A1 A2 B1 B2 X VGND VPWR
.ends

* Black-box entry subcircuit for sky130_fd_sc_hd__a21o_4 abstract view
.subckt sky130_fd_sc_hd__a21o_4 A1 A2 B1 X VGND VPWR
.ends

* Black-box entry subcircuit for sky130_fd_sc_hd__o21a_4 abstract view
.subckt sky130_fd_sc_hd__o21a_4 A1 A2 B1 X VGND VPWR
.ends

* Black-box entry subcircuit for sky130_fd_sc_hd__dfxtp_4 abstract view
.subckt sky130_fd_sc_hd__dfxtp_4 D Q CLK VGND VPWR
.ends

* Black-box entry subcircuit for sky130_fd_sc_hd__conb_1 abstract view
.subckt sky130_fd_sc_hd__conb_1 HI LO VGND VPWR
.ends

* Black-box entry subcircuit for sky130_fd_sc_hd__o21ai_4 abstract view
.subckt sky130_fd_sc_hd__o21ai_4 A1 A2 B1 Y VGND VPWR
.ends

* Black-box entry subcircuit for sky130_fd_sc_hd__nor2_4 abstract view
.subckt sky130_fd_sc_hd__nor2_4 A B Y VGND VPWR
.ends

* Black-box entry subcircuit for sky130_fd_sc_hd__clkbuf_1 abstract view
.subckt sky130_fd_sc_hd__clkbuf_1 A X VGND VPWR
.ends

* Black-box entry subcircuit for sky130_fd_sc_hd__or3_4 abstract view
.subckt sky130_fd_sc_hd__or3_4 A B C X VGND VPWR
.ends

* Black-box entry subcircuit for sky130_fd_sc_hd__diode_2 abstract view
.subckt sky130_fd_sc_hd__diode_2 DIODE VGND VPWR
.ends

* Black-box entry subcircuit for sky130_fd_sc_hd__a21oi_4 abstract view
.subckt sky130_fd_sc_hd__a21oi_4 A1 A2 B1 Y VGND VPWR
.ends

* Black-box entry subcircuit for sky130_fd_sc_hd__or4_4 abstract view
.subckt sky130_fd_sc_hd__or4_4 A B C D X VGND VPWR
.ends

* Black-box entry subcircuit for sky130_fd_sc_hd__nor3_4 abstract view
.subckt sky130_fd_sc_hd__nor3_4 A B C Y VGND VPWR
.ends

* Black-box entry subcircuit for sky130_fd_sc_hd__xnor2_4 abstract view
.subckt sky130_fd_sc_hd__xnor2_4 A B Y VGND VPWR
.ends

* Black-box entry subcircuit for sky130_fd_sc_hd__a211o_4 abstract view
.subckt sky130_fd_sc_hd__a211o_4 A1 A2 B1 C1 X VGND VPWR
.ends

* Black-box entry subcircuit for sky130_fd_sc_hd__xor2_4 abstract view
.subckt sky130_fd_sc_hd__xor2_4 A B X VGND VPWR
.ends

* Black-box entry subcircuit for sky130_fd_sc_hd__nor4_4 abstract view
.subckt sky130_fd_sc_hd__nor4_4 A B C D Y VGND VPWR
.ends

* Black-box entry subcircuit for sky130_fd_sc_hd__a32oi_4 abstract view
.subckt sky130_fd_sc_hd__a32oi_4 A1 A2 A3 B1 B2 Y VGND VPWR
.ends

* Black-box entry subcircuit for sky130_fd_sc_hd__a21boi_4 abstract view
.subckt sky130_fd_sc_hd__a21boi_4 A1 A2 B1_N Y VGND VPWR
.ends

* Black-box entry subcircuit for sky130_fd_sc_hd__a2bb2oi_4 abstract view
.subckt sky130_fd_sc_hd__a2bb2oi_4 A1_N A2_N B1 B2 Y VGND VPWR
.ends

* Black-box entry subcircuit for sky130_fd_sc_hd__o32a_4 abstract view
.subckt sky130_fd_sc_hd__o32a_4 A1 A2 A3 B1 B2 X VGND VPWR
.ends

* Black-box entry subcircuit for sky130_fd_sc_hd__clkbuf_16 abstract view
.subckt sky130_fd_sc_hd__clkbuf_16 A X VGND VPWR
.ends

* Black-box entry subcircuit for sky130_fd_sc_hd__and4_4 abstract view
.subckt sky130_fd_sc_hd__and4_4 A B C D X VGND VPWR
.ends

.subckt user_proj_example io_in[0] io_in[10] io_in[11] io_in[12] io_in[13] io_in[14]
+ io_in[15] io_in[16] io_in[17] io_in[18] io_in[19] io_in[1] io_in[20] io_in[21] io_in[22]
+ io_in[23] io_in[24] io_in[25] io_in[26] io_in[27] io_in[28] io_in[29] io_in[2] io_in[30]
+ io_in[31] io_in[32] io_in[33] io_in[34] io_in[35] io_in[36] io_in[37] io_in[3] io_in[4]
+ io_in[5] io_in[6] io_in[7] io_in[8] io_in[9] io_oeb[0] io_oeb[10] io_oeb[11] io_oeb[12]
+ io_oeb[13] io_oeb[14] io_oeb[15] io_oeb[16] io_oeb[17] io_oeb[18] io_oeb[19] io_oeb[1]
+ io_oeb[20] io_oeb[21] io_oeb[22] io_oeb[23] io_oeb[24] io_oeb[25] io_oeb[26] io_oeb[27]
+ io_oeb[28] io_oeb[29] io_oeb[2] io_oeb[30] io_oeb[31] io_oeb[32] io_oeb[33] io_oeb[34]
+ io_oeb[35] io_oeb[36] io_oeb[37] io_oeb[3] io_oeb[4] io_oeb[5] io_oeb[6] io_oeb[7]
+ io_oeb[8] io_oeb[9] io_out[0] io_out[10] io_out[11] io_out[12] io_out[13] io_out[14]
+ io_out[15] io_out[16] io_out[17] io_out[18] io_out[19] io_out[1] io_out[20] io_out[21]
+ io_out[22] io_out[23] io_out[24] io_out[25] io_out[26] io_out[27] io_out[28] io_out[29]
+ io_out[2] io_out[30] io_out[31] io_out[32] io_out[33] io_out[34] io_out[35] io_out[36]
+ io_out[37] io_out[3] io_out[4] io_out[5] io_out[6] io_out[7] io_out[8] io_out[9]
+ la_data_in[0] la_data_in[100] la_data_in[101] la_data_in[102] la_data_in[103] la_data_in[104]
+ la_data_in[105] la_data_in[106] la_data_in[107] la_data_in[108] la_data_in[109]
+ la_data_in[10] la_data_in[110] la_data_in[111] la_data_in[112] la_data_in[113] la_data_in[114]
+ la_data_in[115] la_data_in[116] la_data_in[117] la_data_in[118] la_data_in[119]
+ la_data_in[11] la_data_in[120] la_data_in[121] la_data_in[122] la_data_in[123] la_data_in[124]
+ la_data_in[125] la_data_in[126] la_data_in[127] la_data_in[12] la_data_in[13] la_data_in[14]
+ la_data_in[15] la_data_in[16] la_data_in[17] la_data_in[18] la_data_in[19] la_data_in[1]
+ la_data_in[20] la_data_in[21] la_data_in[22] la_data_in[23] la_data_in[24] la_data_in[25]
+ la_data_in[26] la_data_in[27] la_data_in[28] la_data_in[29] la_data_in[2] la_data_in[30]
+ la_data_in[31] la_data_in[32] la_data_in[33] la_data_in[34] la_data_in[35] la_data_in[36]
+ la_data_in[37] la_data_in[38] la_data_in[39] la_data_in[3] la_data_in[40] la_data_in[41]
+ la_data_in[42] la_data_in[43] la_data_in[44] la_data_in[45] la_data_in[46] la_data_in[47]
+ la_data_in[48] la_data_in[49] la_data_in[4] la_data_in[50] la_data_in[51] la_data_in[52]
+ la_data_in[53] la_data_in[54] la_data_in[55] la_data_in[56] la_data_in[57] la_data_in[58]
+ la_data_in[59] la_data_in[5] la_data_in[60] la_data_in[61] la_data_in[62] la_data_in[63]
+ la_data_in[64] la_data_in[65] la_data_in[66] la_data_in[67] la_data_in[68] la_data_in[69]
+ la_data_in[6] la_data_in[70] la_data_in[71] la_data_in[72] la_data_in[73] la_data_in[74]
+ la_data_in[75] la_data_in[76] la_data_in[77] la_data_in[78] la_data_in[79] la_data_in[7]
+ la_data_in[80] la_data_in[81] la_data_in[82] la_data_in[83] la_data_in[84] la_data_in[85]
+ la_data_in[86] la_data_in[87] la_data_in[88] la_data_in[89] la_data_in[8] la_data_in[90]
+ la_data_in[91] la_data_in[92] la_data_in[93] la_data_in[94] la_data_in[95] la_data_in[96]
+ la_data_in[97] la_data_in[98] la_data_in[99] la_data_in[9] la_data_out[0] la_data_out[100]
+ la_data_out[101] la_data_out[102] la_data_out[103] la_data_out[104] la_data_out[105]
+ la_data_out[106] la_data_out[107] la_data_out[108] la_data_out[109] la_data_out[10]
+ la_data_out[110] la_data_out[111] la_data_out[112] la_data_out[113] la_data_out[114]
+ la_data_out[115] la_data_out[116] la_data_out[117] la_data_out[118] la_data_out[119]
+ la_data_out[11] la_data_out[120] la_data_out[121] la_data_out[122] la_data_out[123]
+ la_data_out[124] la_data_out[125] la_data_out[126] la_data_out[127] la_data_out[12]
+ la_data_out[13] la_data_out[14] la_data_out[15] la_data_out[16] la_data_out[17]
+ la_data_out[18] la_data_out[19] la_data_out[1] la_data_out[20] la_data_out[21] la_data_out[22]
+ la_data_out[23] la_data_out[24] la_data_out[25] la_data_out[26] la_data_out[27]
+ la_data_out[28] la_data_out[29] la_data_out[2] la_data_out[30] la_data_out[31] la_data_out[32]
+ la_data_out[33] la_data_out[34] la_data_out[35] la_data_out[36] la_data_out[37]
+ la_data_out[38] la_data_out[39] la_data_out[3] la_data_out[40] la_data_out[41] la_data_out[42]
+ la_data_out[43] la_data_out[44] la_data_out[45] la_data_out[46] la_data_out[47]
+ la_data_out[48] la_data_out[49] la_data_out[4] la_data_out[50] la_data_out[51] la_data_out[52]
+ la_data_out[53] la_data_out[54] la_data_out[55] la_data_out[56] la_data_out[57]
+ la_data_out[58] la_data_out[59] la_data_out[5] la_data_out[60] la_data_out[61] la_data_out[62]
+ la_data_out[63] la_data_out[64] la_data_out[65] la_data_out[66] la_data_out[67]
+ la_data_out[68] la_data_out[69] la_data_out[6] la_data_out[70] la_data_out[71] la_data_out[72]
+ la_data_out[73] la_data_out[74] la_data_out[75] la_data_out[76] la_data_out[77]
+ la_data_out[78] la_data_out[79] la_data_out[7] la_data_out[80] la_data_out[81] la_data_out[82]
+ la_data_out[83] la_data_out[84] la_data_out[85] la_data_out[86] la_data_out[87]
+ la_data_out[88] la_data_out[89] la_data_out[8] la_data_out[90] la_data_out[91] la_data_out[92]
+ la_data_out[93] la_data_out[94] la_data_out[95] la_data_out[96] la_data_out[97]
+ la_data_out[98] la_data_out[99] la_data_out[9] la_oen[0] la_oen[100] la_oen[101]
+ la_oen[102] la_oen[103] la_oen[104] la_oen[105] la_oen[106] la_oen[107] la_oen[108]
+ la_oen[109] la_oen[10] la_oen[110] la_oen[111] la_oen[112] la_oen[113] la_oen[114]
+ la_oen[115] la_oen[116] la_oen[117] la_oen[118] la_oen[119] la_oen[11] la_oen[120]
+ la_oen[121] la_oen[122] la_oen[123] la_oen[124] la_oen[125] la_oen[126] la_oen[127]
+ la_oen[12] la_oen[13] la_oen[14] la_oen[15] la_oen[16] la_oen[17] la_oen[18] la_oen[19]
+ la_oen[1] la_oen[20] la_oen[21] la_oen[22] la_oen[23] la_oen[24] la_oen[25] la_oen[26]
+ la_oen[27] la_oen[28] la_oen[29] la_oen[2] la_oen[30] la_oen[31] la_oen[32] la_oen[33]
+ la_oen[34] la_oen[35] la_oen[36] la_oen[37] la_oen[38] la_oen[39] la_oen[3] la_oen[40]
+ la_oen[41] la_oen[42] la_oen[43] la_oen[44] la_oen[45] la_oen[46] la_oen[47] la_oen[48]
+ la_oen[49] la_oen[4] la_oen[50] la_oen[51] la_oen[52] la_oen[53] la_oen[54] la_oen[55]
+ la_oen[56] la_oen[57] la_oen[58] la_oen[59] la_oen[5] la_oen[60] la_oen[61] la_oen[62]
+ la_oen[63] la_oen[64] la_oen[65] la_oen[66] la_oen[67] la_oen[68] la_oen[69] la_oen[6]
+ la_oen[70] la_oen[71] la_oen[72] la_oen[73] la_oen[74] la_oen[75] la_oen[76] la_oen[77]
+ la_oen[78] la_oen[79] la_oen[7] la_oen[80] la_oen[81] la_oen[82] la_oen[83] la_oen[84]
+ la_oen[85] la_oen[86] la_oen[87] la_oen[88] la_oen[89] la_oen[8] la_oen[90] la_oen[91]
+ la_oen[92] la_oen[93] la_oen[94] la_oen[95] la_oen[96] la_oen[97] la_oen[98] la_oen[99]
+ la_oen[9] wb_clk_i wb_rst_i wbs_ack_o wbs_adr_i[0] wbs_adr_i[10] wbs_adr_i[11] wbs_adr_i[12]
+ wbs_adr_i[13] wbs_adr_i[14] wbs_adr_i[15] wbs_adr_i[16] wbs_adr_i[17] wbs_adr_i[18]
+ wbs_adr_i[19] wbs_adr_i[1] wbs_adr_i[20] wbs_adr_i[21] wbs_adr_i[22] wbs_adr_i[23]
+ wbs_adr_i[24] wbs_adr_i[25] wbs_adr_i[26] wbs_adr_i[27] wbs_adr_i[28] wbs_adr_i[29]
+ wbs_adr_i[2] wbs_adr_i[30] wbs_adr_i[31] wbs_adr_i[3] wbs_adr_i[4] wbs_adr_i[5]
+ wbs_adr_i[6] wbs_adr_i[7] wbs_adr_i[8] wbs_adr_i[9] wbs_cyc_i wbs_dat_i[0] wbs_dat_i[10]
+ wbs_dat_i[11] wbs_dat_i[12] wbs_dat_i[13] wbs_dat_i[14] wbs_dat_i[15] wbs_dat_i[16]
+ wbs_dat_i[17] wbs_dat_i[18] wbs_dat_i[19] wbs_dat_i[1] wbs_dat_i[20] wbs_dat_i[21]
+ wbs_dat_i[22] wbs_dat_i[23] wbs_dat_i[24] wbs_dat_i[25] wbs_dat_i[26] wbs_dat_i[27]
+ wbs_dat_i[28] wbs_dat_i[29] wbs_dat_i[2] wbs_dat_i[30] wbs_dat_i[31] wbs_dat_i[3]
+ wbs_dat_i[4] wbs_dat_i[5] wbs_dat_i[6] wbs_dat_i[7] wbs_dat_i[8] wbs_dat_i[9] wbs_dat_o[0]
+ wbs_dat_o[10] wbs_dat_o[11] wbs_dat_o[12] wbs_dat_o[13] wbs_dat_o[14] wbs_dat_o[15]
+ wbs_dat_o[16] wbs_dat_o[17] wbs_dat_o[18] wbs_dat_o[19] wbs_dat_o[1] wbs_dat_o[20]
+ wbs_dat_o[21] wbs_dat_o[22] wbs_dat_o[23] wbs_dat_o[24] wbs_dat_o[25] wbs_dat_o[26]
+ wbs_dat_o[27] wbs_dat_o[28] wbs_dat_o[29] wbs_dat_o[2] wbs_dat_o[30] wbs_dat_o[31]
+ wbs_dat_o[3] wbs_dat_o[4] wbs_dat_o[5] wbs_dat_o[6] wbs_dat_o[7] wbs_dat_o[8] wbs_dat_o[9]
+ wbs_sel_i[0] wbs_sel_i[1] wbs_sel_i[2] wbs_sel_i[3] wbs_stb_i wbs_we_i VPWR VGND
XFILLER_80_1276 VGND VPWR sky130_fd_sc_hd__fill_1
XFILLER_94_361 VGND VPWR sky130_fd_sc_hd__decap_12
XFILLER_39_266 VGND VPWR sky130_fd_sc_hd__decap_12
XFILLER_67_586 VGND VPWR sky130_fd_sc_hd__decap_12
XFILLER_27_428 VGND VPWR sky130_fd_sc_hd__fill_2
XFILLER_27_439 VGND VPWR sky130_fd_sc_hd__decap_8
XFILLER_199_208 VGND VPWR sky130_fd_sc_hd__decap_12
XFILLER_82_556 VGND VPWR sky130_fd_sc_hd__decap_12
XFILLER_208_581 VGND VPWR sky130_fd_sc_hd__fill_1
X_6914_ _6866_/A _6865_/X _6914_/Y VGND VPWR sky130_fd_sc_hd__nand2_4
XPHY_3109 VGND VPWR sky130_fd_sc_hd__tapvpwrvgnd_1
XFILLER_23_601 VGND VPWR sky130_fd_sc_hd__decap_8
XFILLER_74_1014 VGND VPWR sky130_fd_sc_hd__fill_1
XFILLER_39_1134 VGND VPWR sky130_fd_sc_hd__decap_12
XPHY_2408 VGND VPWR sky130_fd_sc_hd__tapvpwrvgnd_1
XFILLER_23_623 VGND VPWR sky130_fd_sc_hd__decap_12
X_6845_ _6843_/Y _6844_/Y _6845_/X VGND VPWR sky130_fd_sc_hd__and2_4
XPHY_2419 VGND VPWR sky130_fd_sc_hd__tapvpwrvgnd_1
XFILLER_195_403 VGND VPWR sky130_fd_sc_hd__decap_12
XFILLER_74_1058 VGND VPWR sky130_fd_sc_hd__decap_8
XPHY_1707 VGND VPWR sky130_fd_sc_hd__tapvpwrvgnd_1
XFILLER_168_628 VGND VPWR sky130_fd_sc_hd__decap_12
XFILLER_74_1069 VGND VPWR sky130_fd_sc_hd__decap_12
XPHY_1718 VGND VPWR sky130_fd_sc_hd__tapvpwrvgnd_1
XFILLER_211_757 VGND VPWR sky130_fd_sc_hd__decap_12
X_6776_ _6770_/A _6769_/X _6776_/Y VGND VPWR sky130_fd_sc_hd__nand2_4
XPHY_1729 VGND VPWR sky130_fd_sc_hd__tapvpwrvgnd_1
XFILLER_196_959 VGND VPWR sky130_fd_sc_hd__decap_12
X_3988_ _7303_/A _3988_/Y VGND VPWR sky130_fd_sc_hd__inv_8
XFILLER_149_842 VGND VPWR sky130_fd_sc_hd__decap_12
X_5727_ _5696_/X _5699_/X _5700_/X _5727_/X VGND VPWR sky130_fd_sc_hd__a21bo_4
XFILLER_148_385 VGND VPWR sky130_fd_sc_hd__decap_12
X_5658_ _5656_/X _5657_/X _5658_/X VGND VPWR sky130_fd_sc_hd__or2_4
XFILLER_175_171 VGND VPWR sky130_fd_sc_hd__decap_12
XFILLER_202_1069 VGND VPWR sky130_fd_sc_hd__decap_8
XFILLER_108_227 VGND VPWR sky130_fd_sc_hd__decap_12
XFILLER_11_1020 VGND VPWR sky130_fd_sc_hd__decap_12
X_4609_ _4609_/A _4565_/B _4609_/X VGND VPWR sky130_fd_sc_hd__or2_4
XFILLER_190_141 VGND VPWR sky130_fd_sc_hd__decap_12
X_5589_ _5185_/A _4631_/B _5589_/X VGND VPWR sky130_fd_sc_hd__or2_4
XFILLER_151_517 VGND VPWR sky130_fd_sc_hd__decap_8
XFILLER_123_208 VGND VPWR sky130_fd_sc_hd__decap_12
X_7328_ io_in[17] _7329_/A VGND VPWR sky130_fd_sc_hd__inv_8
XFILLER_117_794 VGND VPWR sky130_fd_sc_hd__decap_12
XFILLER_104_411 VGND VPWR sky130_fd_sc_hd__decap_12
XFILLER_85_1143 VGND VPWR sky130_fd_sc_hd__decap_12
XFILLER_11_1086 VGND VPWR sky130_fd_sc_hd__decap_12
XFILLER_137_1233 VGND VPWR sky130_fd_sc_hd__decap_12
XFILLER_77_15 VGND VPWR sky130_fd_sc_hd__decap_12
XFILLER_104_455 VGND VPWR sky130_fd_sc_hd__decap_3
X_7259_ _7259_/A _7260_/B VGND VPWR sky130_fd_sc_hd__buf_1
XFILLER_105_989 VGND VPWR sky130_fd_sc_hd__decap_12
XFILLER_77_306 VGND VPWR sky130_fd_sc_hd__decap_12
XFILLER_104_477 VGND VPWR sky130_fd_sc_hd__decap_12
XFILLER_77_59 VGND VPWR sky130_fd_sc_hd__fill_2
XFILLER_120_959 VGND VPWR sky130_fd_sc_hd__decap_12
XFILLER_58_520 VGND VPWR sky130_fd_sc_hd__decap_12
XFILLER_73_501 VGND VPWR sky130_fd_sc_hd__decap_6
XFILLER_46_715 VGND VPWR sky130_fd_sc_hd__decap_12
XFILLER_206_507 VGND VPWR sky130_fd_sc_hd__decap_12
XFILLER_133_98 VGND VPWR sky130_fd_sc_hd__decap_12
XPHY_4300 VGND VPWR sky130_fd_sc_hd__tapvpwrvgnd_1
XFILLER_172_3 VGND VPWR sky130_fd_sc_hd__decap_12
XPHY_4311 VGND VPWR sky130_fd_sc_hd__tapvpwrvgnd_1
XFILLER_27_940 VGND VPWR sky130_fd_sc_hd__decap_12
XFILLER_2_1243 VGND VPWR sky130_fd_sc_hd__decap_8
XPHY_4322 VGND VPWR sky130_fd_sc_hd__tapvpwrvgnd_1
XPHY_4333 VGND VPWR sky130_fd_sc_hd__tapvpwrvgnd_1
XPHY_4344 VGND VPWR sky130_fd_sc_hd__tapvpwrvgnd_1
XPHY_3610 VGND VPWR sky130_fd_sc_hd__tapvpwrvgnd_1
XFILLER_199_731 VGND VPWR sky130_fd_sc_hd__fill_1
XFILLER_96_1261 VGND VPWR sky130_fd_sc_hd__decap_12
XFILLER_26_450 VGND VPWR sky130_fd_sc_hd__decap_8
XPHY_4355 VGND VPWR sky130_fd_sc_hd__tapvpwrvgnd_1
XPHY_3621 VGND VPWR sky130_fd_sc_hd__tapvpwrvgnd_1
XPHY_4366 VGND VPWR sky130_fd_sc_hd__tapvpwrvgnd_1
XPHY_3632 VGND VPWR sky130_fd_sc_hd__tapvpwrvgnd_1
XFILLER_26_483 VGND VPWR sky130_fd_sc_hd__decap_8
XPHY_4377 VGND VPWR sky130_fd_sc_hd__tapvpwrvgnd_1
XPHY_3643 VGND VPWR sky130_fd_sc_hd__tapvpwrvgnd_1
XFILLER_60_239 VGND VPWR sky130_fd_sc_hd__decap_3
XFILLER_26_494 VGND VPWR sky130_fd_sc_hd__decap_12
XPHY_4388 VGND VPWR sky130_fd_sc_hd__tapvpwrvgnd_1
XPHY_3654 VGND VPWR sky130_fd_sc_hd__tapvpwrvgnd_1
XFILLER_159_606 VGND VPWR sky130_fd_sc_hd__decap_4
XFILLER_13_111 VGND VPWR sky130_fd_sc_hd__decap_8
XPHY_4399 VGND VPWR sky130_fd_sc_hd__tapvpwrvgnd_1
XPHY_2920 VGND VPWR sky130_fd_sc_hd__tapvpwrvgnd_1
XPHY_3665 VGND VPWR sky130_fd_sc_hd__tapvpwrvgnd_1
XFILLER_144_1215 VGND VPWR sky130_fd_sc_hd__decap_12
XPHY_2931 VGND VPWR sky130_fd_sc_hd__tapvpwrvgnd_1
XPHY_3676 VGND VPWR sky130_fd_sc_hd__tapvpwrvgnd_1
XFILLER_198_263 VGND VPWR sky130_fd_sc_hd__decap_12
XFILLER_92_1158 VGND VPWR sky130_fd_sc_hd__decap_12
XPHY_2942 VGND VPWR sky130_fd_sc_hd__tapvpwrvgnd_1
XFILLER_158_105 VGND VPWR sky130_fd_sc_hd__decap_12
XPHY_3687 VGND VPWR sky130_fd_sc_hd__tapvpwrvgnd_1
XFILLER_187_948 VGND VPWR sky130_fd_sc_hd__fill_1
XFILLER_42_987 VGND VPWR sky130_fd_sc_hd__decap_12
XFILLER_41_464 VGND VPWR sky130_fd_sc_hd__decap_12
XFILLER_14_678 VGND VPWR sky130_fd_sc_hd__decap_8
XPHY_2953 VGND VPWR sky130_fd_sc_hd__tapvpwrvgnd_1
XPHY_3698 VGND VPWR sky130_fd_sc_hd__tapvpwrvgnd_1
XPHY_2964 VGND VPWR sky130_fd_sc_hd__tapvpwrvgnd_1
XFILLER_201_245 VGND VPWR sky130_fd_sc_hd__decap_12
XFILLER_13_166 VGND VPWR sky130_fd_sc_hd__decap_12
XFILLER_9_115 VGND VPWR sky130_fd_sc_hd__decap_6
XPHY_2975 VGND VPWR sky130_fd_sc_hd__tapvpwrvgnd_1
XPHY_2986 VGND VPWR sky130_fd_sc_hd__tapvpwrvgnd_1
XPHY_2997 VGND VPWR sky130_fd_sc_hd__tapvpwrvgnd_1
XFILLER_174_609 VGND VPWR sky130_fd_sc_hd__decap_12
XFILLER_42_62 VGND VPWR sky130_fd_sc_hd__decap_12
XFILLER_167_661 VGND VPWR sky130_fd_sc_hd__decap_8
XFILLER_167_672 VGND VPWR sky130_fd_sc_hd__decap_12
XFILLER_155_812 VGND VPWR sky130_fd_sc_hd__decap_12
XFILLER_139_363 VGND VPWR sky130_fd_sc_hd__decap_3
XFILLER_127_503 VGND VPWR sky130_fd_sc_hd__decap_8
XFILLER_6_800 VGND VPWR sky130_fd_sc_hd__decap_12
XFILLER_10_873 VGND VPWR sky130_fd_sc_hd__decap_12
XFILLER_154_333 VGND VPWR sky130_fd_sc_hd__decap_3
XFILLER_177_1024 VGND VPWR sky130_fd_sc_hd__decap_12
XFILLER_155_867 VGND VPWR sky130_fd_sc_hd__decap_4
XFILLER_182_664 VGND VPWR sky130_fd_sc_hd__fill_1
XFILLER_138_1008 VGND VPWR sky130_fd_sc_hd__decap_6
XFILLER_5_365 VGND VPWR sky130_fd_sc_hd__fill_1
XFILLER_181_196 VGND VPWR sky130_fd_sc_hd__decap_12
XFILLER_123_731 VGND VPWR sky130_fd_sc_hd__fill_1
XFILLER_64_1227 VGND VPWR sky130_fd_sc_hd__decap_6
XFILLER_123_775 VGND VPWR sky130_fd_sc_hd__decap_12
XFILLER_150_572 VGND VPWR sky130_fd_sc_hd__decap_8
XFILLER_122_263 VGND VPWR sky130_fd_sc_hd__decap_12
XFILLER_110_414 VGND VPWR sky130_fd_sc_hd__decap_12
XFILLER_111_959 VGND VPWR sky130_fd_sc_hd__decap_12
XFILLER_95_147 VGND VPWR sky130_fd_sc_hd__decap_12
XFILLER_76_361 VGND VPWR sky130_fd_sc_hd__decap_12
XFILLER_49_586 VGND VPWR sky130_fd_sc_hd__fill_2
XFILLER_36_203 VGND VPWR sky130_fd_sc_hd__decap_8
XFILLER_190_93 VGND VPWR sky130_fd_sc_hd__decap_12
XFILLER_209_367 VGND VPWR sky130_fd_sc_hd__decap_8
XFILLER_184_1006 VGND VPWR sky130_fd_sc_hd__fill_1
XFILLER_91_342 VGND VPWR sky130_fd_sc_hd__decap_12
X_4960_ _4958_/X _4959_/X _4958_/X _4959_/X _4960_/X VGND VPWR sky130_fd_sc_hd__a2bb2o_4
XFILLER_149_1148 VGND VPWR sky130_fd_sc_hd__decap_8
XFILLER_45_781 VGND VPWR sky130_fd_sc_hd__decap_12
X_3911_ _7321_/A _3911_/Y VGND VPWR sky130_fd_sc_hd__inv_8
XFILLER_205_562 VGND VPWR sky130_fd_sc_hd__decap_12
X_4891_ _4891_/A _4891_/B _4891_/X VGND VPWR sky130_fd_sc_hd__or2_4
XFILLER_177_403 VGND VPWR sky130_fd_sc_hd__decap_12
X_6630_ _6630_/A _6630_/Y VGND VPWR sky130_fd_sc_hd__inv_8
X_3842_ _3842_/A _3843_/A VGND VPWR sky130_fd_sc_hd__inv_8
XFILLER_60_795 VGND VPWR sky130_fd_sc_hd__decap_3
XFILLER_34_1020 VGND VPWR sky130_fd_sc_hd__decap_12
XFILLER_20_626 VGND VPWR sky130_fd_sc_hd__decap_12
X_6561_ _6586_/A _6553_/X _6560_/Y _6561_/X VGND VPWR sky130_fd_sc_hd__and3_4
X_3773_ _4512_/A _3773_/X VGND VPWR sky130_fd_sc_hd__buf_1
XFILLER_201_790 VGND VPWR sky130_fd_sc_hd__decap_3
X_5512_ _5463_/X _5500_/X _5510_/X _5511_/X _5512_/X VGND VPWR sky130_fd_sc_hd__o22a_4
XFILLER_125_1192 VGND VPWR sky130_fd_sc_hd__decap_12
XFILLER_157_171 VGND VPWR sky130_fd_sc_hd__decap_12
X_6492_ _7712_/Q _6492_/Y VGND VPWR sky130_fd_sc_hd__inv_8
XFILLER_146_845 VGND VPWR sky130_fd_sc_hd__decap_8
X_5443_ _4459_/A _5443_/B _5444_/A VGND VPWR sky130_fd_sc_hd__or2_4
XFILLER_172_141 VGND VPWR sky130_fd_sc_hd__decap_12
XFILLER_161_815 VGND VPWR sky130_fd_sc_hd__decap_8
XFILLER_105_208 VGND VPWR sky130_fd_sc_hd__decap_12
X_5374_ _5359_/X _5365_/X _5372_/X _5373_/X _5374_/X VGND VPWR sky130_fd_sc_hd__o22a_4
X_7113_ _7628_/Q la_data_in[90] _7048_/X _7113_/X VGND VPWR sky130_fd_sc_hd__a21o_4
X_4325_ _4286_/X _4287_/X _4286_/X _4287_/X _4325_/X VGND VPWR sky130_fd_sc_hd__a2bb2o_4
XFILLER_141_550 VGND VPWR sky130_fd_sc_hd__decap_12
XFILLER_99_464 VGND VPWR sky130_fd_sc_hd__decap_12
XFILLER_59_306 VGND VPWR sky130_fd_sc_hd__decap_12
X_7044_ la_data_in[91] _7044_/Y VGND VPWR sky130_fd_sc_hd__inv_8
X_4256_ _4245_/X _4246_/X _4245_/X _4246_/X _4256_/X VGND VPWR sky130_fd_sc_hd__a2bb2o_4
XFILLER_102_959 VGND VPWR sky130_fd_sc_hd__decap_12
XFILLER_45_1160 VGND VPWR sky130_fd_sc_hd__decap_12
XFILLER_132_1130 VGND VPWR sky130_fd_sc_hd__decap_12
XFILLER_101_469 VGND VPWR sky130_fd_sc_hd__decap_12
X_4187_ _4171_/X _4174_/X _4187_/X VGND VPWR sky130_fd_sc_hd__and2_4
XFILLER_110_970 VGND VPWR sky130_fd_sc_hd__decap_12
XFILLER_95_670 VGND VPWR sky130_fd_sc_hd__fill_1
XFILLER_55_501 VGND VPWR sky130_fd_sc_hd__decap_12
XFILLER_132_1174 VGND VPWR sky130_fd_sc_hd__decap_12
XFILLER_42_206 VGND VPWR sky130_fd_sc_hd__decap_8
XFILLER_24_910 VGND VPWR sky130_fd_sc_hd__decap_4
XFILLER_82_386 VGND VPWR sky130_fd_sc_hd__decap_8
XFILLER_63_39 VGND VPWR sky130_fd_sc_hd__decap_12
XPHY_905 VGND VPWR sky130_fd_sc_hd__tapvpwrvgnd_1
XPHY_2205 VGND VPWR sky130_fd_sc_hd__tapvpwrvgnd_1
XFILLER_42_239 VGND VPWR sky130_fd_sc_hd__decap_12
XPHY_916 VGND VPWR sky130_fd_sc_hd__tapvpwrvgnd_1
XPHY_2216 VGND VPWR sky130_fd_sc_hd__tapvpwrvgnd_1
XFILLER_179_39 VGND VPWR sky130_fd_sc_hd__decap_12
XFILLER_196_701 VGND VPWR sky130_fd_sc_hd__fill_1
XPHY_927 VGND VPWR sky130_fd_sc_hd__tapvpwrvgnd_1
XFILLER_24_965 VGND VPWR sky130_fd_sc_hd__decap_12
XPHY_938 VGND VPWR sky130_fd_sc_hd__tapvpwrvgnd_1
XPHY_2227 VGND VPWR sky130_fd_sc_hd__tapvpwrvgnd_1
XFILLER_211_521 VGND VPWR sky130_fd_sc_hd__decap_6
XPHY_949 VGND VPWR sky130_fd_sc_hd__tapvpwrvgnd_1
XPHY_2238 VGND VPWR sky130_fd_sc_hd__tapvpwrvgnd_1
XPHY_1504 VGND VPWR sky130_fd_sc_hd__tapvpwrvgnd_1
XPHY_2249 VGND VPWR sky130_fd_sc_hd__tapvpwrvgnd_1
XFILLER_23_464 VGND VPWR sky130_fd_sc_hd__decap_12
X_6828_ _7661_/Q _6830_/A VGND VPWR sky130_fd_sc_hd__inv_8
XPHY_1515 VGND VPWR sky130_fd_sc_hd__tapvpwrvgnd_1
XPHY_1526 VGND VPWR sky130_fd_sc_hd__tapvpwrvgnd_1
XPHY_1537 VGND VPWR sky130_fd_sc_hd__tapvpwrvgnd_1
XFILLER_10_114 VGND VPWR sky130_fd_sc_hd__decap_12
XPHY_1548 VGND VPWR sky130_fd_sc_hd__tapvpwrvgnd_1
X_6759_ _6736_/Y _6737_/Y _6758_/X _6759_/X VGND VPWR sky130_fd_sc_hd__o21a_4
XPHY_1559 VGND VPWR sky130_fd_sc_hd__tapvpwrvgnd_1
XFILLER_52_1142 VGND VPWR sky130_fd_sc_hd__decap_12
XFILLER_195_27 VGND VPWR sky130_fd_sc_hd__decap_12
XFILLER_109_525 VGND VPWR sky130_fd_sc_hd__decap_6
XFILLER_12_32 VGND VPWR sky130_fd_sc_hd__decap_12
XFILLER_6_129 VGND VPWR sky130_fd_sc_hd__decap_12
XFILLER_109_547 VGND VPWR sky130_fd_sc_hd__fill_2
XFILLER_136_333 VGND VPWR sky130_fd_sc_hd__decap_3
XFILLER_104_1276 VGND VPWR sky130_fd_sc_hd__fill_1
XFILLER_137_867 VGND VPWR sky130_fd_sc_hd__decap_12
XFILLER_128_32 VGND VPWR sky130_fd_sc_hd__decap_12
XFILLER_191_461 VGND VPWR sky130_fd_sc_hd__decap_12
XFILLER_124_517 VGND VPWR sky130_fd_sc_hd__fill_2
XFILLER_192_995 VGND VPWR sky130_fd_sc_hd__decap_12
XFILLER_151_303 VGND VPWR sky130_fd_sc_hd__fill_2
XFILLER_152_848 VGND VPWR sky130_fd_sc_hd__fill_1
XFILLER_163_196 VGND VPWR sky130_fd_sc_hd__decap_12
XFILLER_105_731 VGND VPWR sky130_fd_sc_hd__fill_1
XFILLER_137_1030 VGND VPWR sky130_fd_sc_hd__decap_6
XFILLER_176_1090 VGND VPWR sky130_fd_sc_hd__decap_8
XFILLER_105_775 VGND VPWR sky130_fd_sc_hd__decap_12
XFILLER_132_572 VGND VPWR sky130_fd_sc_hd__decap_8
XFILLER_104_263 VGND VPWR sky130_fd_sc_hd__decap_12
XFILLER_78_637 VGND VPWR sky130_fd_sc_hd__decap_4
XFILLER_137_1096 VGND VPWR sky130_fd_sc_hd__fill_2
XFILLER_63_1260 VGND VPWR sky130_fd_sc_hd__decap_12
XFILLER_77_147 VGND VPWR sky130_fd_sc_hd__decap_12
XFILLER_93_607 VGND VPWR sky130_fd_sc_hd__decap_3
XFILLER_150_1252 VGND VPWR sky130_fd_sc_hd__fill_1
XFILLER_111_1203 VGND VPWR sky130_fd_sc_hd__decap_12
XFILLER_92_117 VGND VPWR sky130_fd_sc_hd__decap_12
XFILLER_58_361 VGND VPWR sky130_fd_sc_hd__decap_12
XFILLER_24_1266 VGND VPWR sky130_fd_sc_hd__decap_8
XFILLER_73_320 VGND VPWR sky130_fd_sc_hd__decap_6
XFILLER_58_394 VGND VPWR sky130_fd_sc_hd__decap_3
XFILLER_46_556 VGND VPWR sky130_fd_sc_hd__decap_12
XFILLER_206_337 VGND VPWR sky130_fd_sc_hd__decap_12
XPHY_4130 VGND VPWR sky130_fd_sc_hd__tapvpwrvgnd_1
XPHY_4141 VGND VPWR sky130_fd_sc_hd__tapvpwrvgnd_1
XPHY_4152 VGND VPWR sky130_fd_sc_hd__tapvpwrvgnd_1
XFILLER_33_228 VGND VPWR sky130_fd_sc_hd__decap_12
XFILLER_27_792 VGND VPWR sky130_fd_sc_hd__fill_1
XPHY_4163 VGND VPWR sky130_fd_sc_hd__tapvpwrvgnd_1
XFILLER_199_550 VGND VPWR sky130_fd_sc_hd__decap_12
XPHY_4174 VGND VPWR sky130_fd_sc_hd__tapvpwrvgnd_1
XPHY_3440 VGND VPWR sky130_fd_sc_hd__tapvpwrvgnd_1
XPHY_4185 VGND VPWR sky130_fd_sc_hd__tapvpwrvgnd_1
XPHY_3451 VGND VPWR sky130_fd_sc_hd__tapvpwrvgnd_1
XFILLER_26_291 VGND VPWR sky130_fd_sc_hd__fill_1
XFILLER_14_431 VGND VPWR sky130_fd_sc_hd__decap_6
XFILLER_42_751 VGND VPWR sky130_fd_sc_hd__decap_12
XPHY_4196 VGND VPWR sky130_fd_sc_hd__tapvpwrvgnd_1
XPHY_3462 VGND VPWR sky130_fd_sc_hd__tapvpwrvgnd_1
XPHY_3473 VGND VPWR sky130_fd_sc_hd__tapvpwrvgnd_1
XFILLER_183_1072 VGND VPWR sky130_fd_sc_hd__fill_1
XFILLER_202_532 VGND VPWR sky130_fd_sc_hd__decap_12
XFILLER_144_1023 VGND VPWR sky130_fd_sc_hd__decap_12
XPHY_3484 VGND VPWR sky130_fd_sc_hd__tapvpwrvgnd_1
XFILLER_187_745 VGND VPWR sky130_fd_sc_hd__decap_12
XPHY_2750 VGND VPWR sky130_fd_sc_hd__tapvpwrvgnd_1
XPHY_3495 VGND VPWR sky130_fd_sc_hd__tapvpwrvgnd_1
XFILLER_183_1094 VGND VPWR sky130_fd_sc_hd__decap_4
XFILLER_42_784 VGND VPWR sky130_fd_sc_hd__fill_2
XFILLER_41_261 VGND VPWR sky130_fd_sc_hd__fill_1
XPHY_2761 VGND VPWR sky130_fd_sc_hd__tapvpwrvgnd_1
XFILLER_144_1056 VGND VPWR sky130_fd_sc_hd__decap_12
XPHY_2772 VGND VPWR sky130_fd_sc_hd__tapvpwrvgnd_1
XPHY_2783 VGND VPWR sky130_fd_sc_hd__tapvpwrvgnd_1
XFILLER_105_1029 VGND VPWR sky130_fd_sc_hd__decap_8
XPHY_2794 VGND VPWR sky130_fd_sc_hd__tapvpwrvgnd_1
XFILLER_168_970 VGND VPWR sky130_fd_sc_hd__decap_12
XFILLER_186_288 VGND VPWR sky130_fd_sc_hd__decap_12
XFILLER_70_1264 VGND VPWR sky130_fd_sc_hd__decap_12
XFILLER_139_171 VGND VPWR sky130_fd_sc_hd__decap_12
XFILLER_155_653 VGND VPWR sky130_fd_sc_hd__decap_12
XFILLER_154_141 VGND VPWR sky130_fd_sc_hd__decap_12
XFILLER_142_325 VGND VPWR sky130_fd_sc_hd__decap_8
XFILLER_5_184 VGND VPWR sky130_fd_sc_hd__decap_12
XFILLER_29_1111 VGND VPWR sky130_fd_sc_hd__decap_12
XFILLER_123_550 VGND VPWR sky130_fd_sc_hd__fill_2
XFILLER_111_712 VGND VPWR sky130_fd_sc_hd__decap_12
X_4110_ _4092_/A _4091_/X _4092_/X _4110_/X VGND VPWR sky130_fd_sc_hd__a21bo_4
XFILLER_151_1005 VGND VPWR sky130_fd_sc_hd__decap_12
XFILLER_78_80 VGND VPWR sky130_fd_sc_hd__decap_12
XFILLER_25_1008 VGND VPWR sky130_fd_sc_hd__decap_12
XFILLER_123_594 VGND VPWR sky130_fd_sc_hd__decap_12
XFILLER_69_648 VGND VPWR sky130_fd_sc_hd__decap_12
X_5090_ _5077_/X _5083_/X _5077_/X _5083_/X _5090_/X VGND VPWR sky130_fd_sc_hd__a2bb2o_4
XFILLER_190_1076 VGND VPWR sky130_fd_sc_hd__decap_12
XFILLER_155_1196 VGND VPWR sky130_fd_sc_hd__decap_12
XFILLER_151_1038 VGND VPWR sky130_fd_sc_hd__decap_12
XFILLER_111_778 VGND VPWR sky130_fd_sc_hd__decap_12
X_4041_ _4010_/X _4011_/X _4010_/X _4011_/X _4041_/X VGND VPWR sky130_fd_sc_hd__a2bb2o_4
XFILLER_84_618 VGND VPWR sky130_fd_sc_hd__decap_12
XFILLER_49_361 VGND VPWR sky130_fd_sc_hd__decap_4
XFILLER_110_288 VGND VPWR sky130_fd_sc_hd__decap_8
XFILLER_204_56 VGND VPWR sky130_fd_sc_hd__decap_12
XFILLER_49_383 VGND VPWR sky130_fd_sc_hd__decap_12
XFILLER_209_164 VGND VPWR sky130_fd_sc_hd__decap_8
XFILLER_209_175 VGND VPWR sky130_fd_sc_hd__decap_8
XFILLER_92_640 VGND VPWR sky130_fd_sc_hd__fill_1
XFILLER_65_876 VGND VPWR sky130_fd_sc_hd__decap_12