* NGSPICE file created from user_proj_example.ext - technology: sky130A

* Black-box entry subcircuit for sky130_fd_sc_hd__decap_12 abstract view
.subckt sky130_fd_sc_hd__decap_12 VGND VNB VPB VPWR
.ends

* Black-box entry subcircuit for sky130_fd_sc_hd__fill_1 abstract view
.subckt sky130_fd_sc_hd__fill_1 VGND VNB VPB VPWR
.ends

* Black-box entry subcircuit for sky130_fd_sc_hd__decap_3 abstract view
.subckt sky130_fd_sc_hd__decap_3 VGND VNB VPB VPWR
.ends

* Black-box entry subcircuit for sky130_fd_sc_hd__dfxtp_4 abstract view
.subckt sky130_fd_sc_hd__dfxtp_4 CLK D VGND VNB VPB VPWR Q
.ends

* Black-box entry subcircuit for sky130_fd_sc_hd__a21o_4 abstract view
.subckt sky130_fd_sc_hd__a21o_4 A1 A2 B1 VGND VNB VPB VPWR X
.ends

* Black-box entry subcircuit for sky130_fd_sc_hd__tapvpwrvgnd_1 abstract view
.subckt sky130_fd_sc_hd__tapvpwrvgnd_1 VGND VPWR
.ends

* Black-box entry subcircuit for sky130_fd_sc_hd__and2_4 abstract view
.subckt sky130_fd_sc_hd__and2_4 A B VGND VNB VPB VPWR X
.ends

* Black-box entry subcircuit for sky130_fd_sc_hd__o21a_4 abstract view
.subckt sky130_fd_sc_hd__o21a_4 A1 A2 B1 VGND VNB VPB VPWR X
.ends

* Black-box entry subcircuit for sky130_fd_sc_hd__buf_2 abstract view
.subckt sky130_fd_sc_hd__buf_2 A VGND VNB VPB VPWR X
.ends

* Black-box entry subcircuit for sky130_fd_sc_hd__or2_4 abstract view
.subckt sky130_fd_sc_hd__or2_4 A B VGND VNB VPB VPWR X
.ends

* Black-box entry subcircuit for sky130_fd_sc_hd__decap_4 abstract view
.subckt sky130_fd_sc_hd__decap_4 VGND VNB VPB VPWR
.ends

* Black-box entry subcircuit for sky130_fd_sc_hd__a2bb2o_4 abstract view
.subckt sky130_fd_sc_hd__a2bb2o_4 A1_N A2_N B1 B2 VGND VNB VPB VPWR X
.ends

* Black-box entry subcircuit for sky130_fd_sc_hd__fill_2 abstract view
.subckt sky130_fd_sc_hd__fill_2 VGND VNB VPB VPWR
.ends

* Black-box entry subcircuit for sky130_fd_sc_hd__inv_2 abstract view
.subckt sky130_fd_sc_hd__inv_2 A VGND VNB VPB VPWR Y
.ends

* Black-box entry subcircuit for sky130_fd_sc_hd__o22a_4 abstract view
.subckt sky130_fd_sc_hd__o22a_4 A1 A2 B1 B2 VGND VNB VPB VPWR X
.ends

* Black-box entry subcircuit for sky130_fd_sc_hd__decap_8 abstract view
.subckt sky130_fd_sc_hd__decap_8 VGND VNB VPB VPWR
.ends

* Black-box entry subcircuit for sky130_fd_sc_hd__a21oi_4 abstract view
.subckt sky130_fd_sc_hd__a21oi_4 A1 A2 B1 VGND VNB VPB VPWR Y
.ends

* Black-box entry subcircuit for sky130_fd_sc_hd__decap_6 abstract view
.subckt sky130_fd_sc_hd__decap_6 VGND VNB VPB VPWR
.ends

* Black-box entry subcircuit for sky130_fd_sc_hd__and3_4 abstract view
.subckt sky130_fd_sc_hd__and3_4 A B C VGND VNB VPB VPWR X
.ends

* Black-box entry subcircuit for sky130_fd_sc_hd__or4_4 abstract view
.subckt sky130_fd_sc_hd__or4_4 A B C D VGND VNB VPB VPWR X
.ends

* Black-box entry subcircuit for sky130_fd_sc_hd__a32o_4 abstract view
.subckt sky130_fd_sc_hd__a32o_4 A1 A2 A3 B1 B2 VGND VNB VPB VPWR X
.ends

* Black-box entry subcircuit for sky130_fd_sc_hd__conb_1 abstract view
.subckt sky130_fd_sc_hd__conb_1 VGND VNB VPB VPWR HI LO
.ends

* Black-box entry subcircuit for sky130_fd_sc_hd__a211o_4 abstract view
.subckt sky130_fd_sc_hd__a211o_4 A1 A2 B1 C1 VGND VNB VPB VPWR X
.ends

* Black-box entry subcircuit for sky130_fd_sc_hd__nand2_4 abstract view
.subckt sky130_fd_sc_hd__nand2_4 A B VGND VNB VPB VPWR Y
.ends

* Black-box entry subcircuit for sky130_fd_sc_hd__nor2_4 abstract view
.subckt sky130_fd_sc_hd__nor2_4 A B VGND VNB VPB VPWR Y
.ends

* Black-box entry subcircuit for sky130_fd_sc_hd__o21ai_4 abstract view
.subckt sky130_fd_sc_hd__o21ai_4 A1 A2 B1 VGND VNB VPB VPWR Y
.ends

* Black-box entry subcircuit for sky130_fd_sc_hd__clkbuf_1 abstract view
.subckt sky130_fd_sc_hd__clkbuf_1 A VGND VNB VPB VPWR X
.ends

* Black-box entry subcircuit for sky130_fd_sc_hd__diode_2 abstract view
.subckt sky130_fd_sc_hd__diode_2 DIODE VGND VNB VPB VPWR
.ends

* Black-box entry subcircuit for sky130_fd_sc_hd__a21bo_4 abstract view
.subckt sky130_fd_sc_hd__a21bo_4 A1 A2 B1_N VGND VNB VPB VPWR X
.ends

* Black-box entry subcircuit for sky130_fd_sc_hd__o32a_4 abstract view
.subckt sky130_fd_sc_hd__o32a_4 A1 A2 A3 B1 B2 VGND VNB VPB VPWR X
.ends

* Black-box entry subcircuit for sky130_fd_sc_hd__clkbuf_16 abstract view
.subckt sky130_fd_sc_hd__clkbuf_16 A VGND VNB VPB VPWR X
.ends

* Black-box entry subcircuit for sky130_fd_sc_hd__a2111o_4 abstract view
.subckt sky130_fd_sc_hd__a2111o_4 A1 A2 B1 C1 D1 VGND VNB VPB VPWR X
.ends

* Black-box entry subcircuit for sky130_fd_sc_hd__or3_4 abstract view
.subckt sky130_fd_sc_hd__or3_4 A B C VGND VNB VPB VPWR X
.ends

* Black-box entry subcircuit for sky130_fd_sc_hd__and4_4 abstract view
.subckt sky130_fd_sc_hd__and4_4 A B C D VGND VNB VPB VPWR X
.ends

.subckt user_proj_example io_in[0] io_in[10] io_in[11] io_in[12] io_in[13] io_in[14]
+ io_in[15] io_in[16] io_in[17] io_in[18] io_in[19] io_in[1] io_in[20] io_in[21] io_in[22]
+ io_in[23] io_in[24] io_in[25] io_in[26] io_in[27] io_in[28] io_in[29] io_in[2] io_in[30]
+ io_in[31] io_in[32] io_in[33] io_in[34] io_in[35] io_in[36] io_in[37] io_in[3] io_in[4]
+ io_in[5] io_in[6] io_in[7] io_in[8] io_in[9] io_oeb[0] io_oeb[10] io_oeb[11] io_oeb[12]
+ io_oeb[13] io_oeb[14] io_oeb[15] io_oeb[16] io_oeb[17] io_oeb[18] io_oeb[19] io_oeb[1]
+ io_oeb[20] io_oeb[21] io_oeb[22] io_oeb[23] io_oeb[24] io_oeb[25] io_oeb[26] io_oeb[27]
+ io_oeb[28] io_oeb[29] io_oeb[2] io_oeb[30] io_oeb[31] io_oeb[32] io_oeb[33] io_oeb[34]
+ io_oeb[35] io_oeb[36] io_oeb[37] io_oeb[3] io_oeb[4] io_oeb[5] io_oeb[6] io_oeb[7]
+ io_oeb[8] io_oeb[9] io_out[0] io_out[10] io_out[11] io_out[12] io_out[13] io_out[14]
+ io_out[15] io_out[16] io_out[17] io_out[18] io_out[19] io_out[1] io_out[20] io_out[21]
+ io_out[22] io_out[23] io_out[24] io_out[25] io_out[26] io_out[27] io_out[28] io_out[29]
+ io_out[2] io_out[30] io_out[31] io_out[32] io_out[33] io_out[34] io_out[35] io_out[36]
+ io_out[37] io_out[3] io_out[4] io_out[5] io_out[6] io_out[7] io_out[8] io_out[9]
+ la_data_in[0] la_data_in[100] la_data_in[101] la_data_in[102] la_data_in[103] la_data_in[104]
+ la_data_in[105] la_data_in[106] la_data_in[107] la_data_in[108] la_data_in[109]
+ la_data_in[10] la_data_in[110] la_data_in[111] la_data_in[112] la_data_in[113] la_data_in[114]
+ la_data_in[115] la_data_in[116] la_data_in[117] la_data_in[118] la_data_in[119]
+ la_data_in[11] la_data_in[120] la_data_in[121] la_data_in[122] la_data_in[123] la_data_in[124]
+ la_data_in[125] la_data_in[126] la_data_in[127] la_data_in[12] la_data_in[13] la_data_in[14]
+ la_data_in[15] la_data_in[16] la_data_in[17] la_data_in[18] la_data_in[19] la_data_in[1]
+ la_data_in[20] la_data_in[21] la_data_in[22] la_data_in[23] la_data_in[24] la_data_in[25]
+ la_data_in[26] la_data_in[27] la_data_in[28] la_data_in[29] la_data_in[2] la_data_in[30]
+ la_data_in[31] la_data_in[32] la_data_in[33] la_data_in[34] la_data_in[35] la_data_in[36]
+ la_data_in[37] la_data_in[38] la_data_in[39] la_data_in[3] la_data_in[40] la_data_in[41]
+ la_data_in[42] la_data_in[43] la_data_in[44] la_data_in[45] la_data_in[46] la_data_in[47]
+ la_data_in[48] la_data_in[49] la_data_in[4] la_data_in[50] la_data_in[51] la_data_in[52]
+ la_data_in[53] la_data_in[54] la_data_in[55] la_data_in[56] la_data_in[57] la_data_in[58]
+ la_data_in[59] la_data_in[5] la_data_in[60] la_data_in[61] la_data_in[62] la_data_in[63]
+ la_data_in[64] la_data_in[65] la_data_in[66] la_data_in[67] la_data_in[68] la_data_in[69]
+ la_data_in[6] la_data_in[70] la_data_in[71] la_data_in[72] la_data_in[73] la_data_in[74]
+ la_data_in[75] la_data_in[76] la_data_in[77] la_data_in[78] la_data_in[79] la_data_in[7]
+ la_data_in[80] la_data_in[81] la_data_in[82] la_data_in[83] la_data_in[84] la_data_in[85]
+ la_data_in[86] la_data_in[87] la_data_in[88] la_data_in[89] la_data_in[8] la_data_in[90]
+ la_data_in[91] la_data_in[92] la_data_in[93] la_data_in[94] la_data_in[95] la_data_in[96]
+ la_data_in[97] la_data_in[98] la_data_in[99] la_data_in[9] la_data_out[0] la_data_out[100]
+ la_data_out[101] la_data_out[102] la_data_out[103] la_data_out[104] la_data_out[105]
+ la_data_out[106] la_data_out[107] la_data_out[108] la_data_out[109] la_data_out[10]
+ la_data_out[110] la_data_out[111] la_data_out[112] la_data_out[113] la_data_out[114]
+ la_data_out[115] la_data_out[116] la_data_out[117] la_data_out[118] la_data_out[119]
+ la_data_out[11] la_data_out[120] la_data_out[121] la_data_out[122] la_data_out[123]
+ la_data_out[124] la_data_out[125] la_data_out[126] la_data_out[127] la_data_out[12]
+ la_data_out[13] la_data_out[14] la_data_out[15] la_data_out[16] la_data_out[17]
+ la_data_out[18] la_data_out[19] la_data_out[1] la_data_out[20] la_data_out[21] la_data_out[22]
+ la_data_out[23] la_data_out[24] la_data_out[25] la_data_out[26] la_data_out[27]
+ la_data_out[28] la_data_out[29] la_data_out[2] la_data_out[30] la_data_out[31] la_data_out[32]
+ la_data_out[33] la_data_out[34] la_data_out[35] la_data_out[36] la_data_out[37]
+ la_data_out[38] la_data_out[39] la_data_out[3] la_data_out[40] la_data_out[41] la_data_out[42]
+ la_data_out[43] la_data_out[44] la_data_out[45] la_data_out[46] la_data_out[47]
+ la_data_out[48] la_data_out[49] la_data_out[4] la_data_out[50] la_data_out[51] la_data_out[52]
+ la_data_out[53] la_data_out[54] la_data_out[55] la_data_out[56] la_data_out[57]
+ la_data_out[58] la_data_out[59] la_data_out[5] la_data_out[60] la_data_out[61] la_data_out[62]
+ la_data_out[63] la_data_out[64] la_data_out[65] la_data_out[66] la_data_out[67]
+ la_data_out[68] la_data_out[69] la_data_out[6] la_data_out[70] la_data_out[71] la_data_out[72]
+ la_data_out[73] la_data_out[74] la_data_out[75] la_data_out[76] la_data_out[77]
+ la_data_out[78] la_data_out[79] la_data_out[7] la_data_out[80] la_data_out[81] la_data_out[82]
+ la_data_out[83] la_data_out[84] la_data_out[85] la_data_out[86] la_data_out[87]
+ la_data_out[88] la_data_out[89] la_data_out[8] la_data_out[90] la_data_out[91] la_data_out[92]
+ la_data_out[93] la_data_out[94] la_data_out[95] la_data_out[96] la_data_out[97]
+ la_data_out[98] la_data_out[99] la_data_out[9] la_oen[0] la_oen[100] la_oen[101]
+ la_oen[102] la_oen[103] la_oen[104] la_oen[105] la_oen[106] la_oen[107] la_oen[108]
+ la_oen[109] la_oen[10] la_oen[110] la_oen[111] la_oen[112] la_oen[113] la_oen[114]
+ la_oen[115] la_oen[116] la_oen[117] la_oen[118] la_oen[119] la_oen[11] la_oen[120]
+ la_oen[121] la_oen[122] la_oen[123] la_oen[124] la_oen[125] la_oen[126] la_oen[127]
+ la_oen[12] la_oen[13] la_oen[14] la_oen[15] la_oen[16] la_oen[17] la_oen[18] la_oen[19]
+ la_oen[1] la_oen[20] la_oen[21] la_oen[22] la_oen[23] la_oen[24] la_oen[25] la_oen[26]
+ la_oen[27] la_oen[28] la_oen[29] la_oen[2] la_oen[30] la_oen[31] la_oen[32] la_oen[33]
+ la_oen[34] la_oen[35] la_oen[36] la_oen[37] la_oen[38] la_oen[39] la_oen[3] la_oen[40]
+ la_oen[41] la_oen[42] la_oen[43] la_oen[44] la_oen[45] la_oen[46] la_oen[47] la_oen[48]
+ la_oen[49] la_oen[4] la_oen[50] la_oen[51] la_oen[52] la_oen[53] la_oen[54] la_oen[55]
+ la_oen[56] la_oen[57] la_oen[58] la_oen[59] la_oen[5] la_oen[60] la_oen[61] la_oen[62]
+ la_oen[63] la_oen[64] la_oen[65] la_oen[66] la_oen[67] la_oen[68] la_oen[69] la_oen[6]
+ la_oen[70] la_oen[71] la_oen[72] la_oen[73] la_oen[74] la_oen[75] la_oen[76] la_oen[77]
+ la_oen[78] la_oen[79] la_oen[7] la_oen[80] la_oen[81] la_oen[82] la_oen[83] la_oen[84]
+ la_oen[85] la_oen[86] la_oen[87] la_oen[88] la_oen[89] la_oen[8] la_oen[90] la_oen[91]
+ la_oen[92] la_oen[93] la_oen[94] la_oen[95] la_oen[96] la_oen[97] la_oen[98] la_oen[99]
+ la_oen[9] wb_clk_i wb_rst_i wbs_ack_o wbs_adr_i[0] wbs_adr_i[10] wbs_adr_i[11] wbs_adr_i[12]
+ wbs_adr_i[13] wbs_adr_i[14] wbs_adr_i[15] wbs_adr_i[16] wbs_adr_i[17] wbs_adr_i[18]
+ wbs_adr_i[19] wbs_adr_i[1] wbs_adr_i[20] wbs_adr_i[21] wbs_adr_i[22] wbs_adr_i[23]
+ wbs_adr_i[24] wbs_adr_i[25] wbs_adr_i[26] wbs_adr_i[27] wbs_adr_i[28] wbs_adr_i[29]
+ wbs_adr_i[2] wbs_adr_i[30] wbs_adr_i[31] wbs_adr_i[3] wbs_adr_i[4] wbs_adr_i[5]
+ wbs_adr_i[6] wbs_adr_i[7] wbs_adr_i[8] wbs_adr_i[9] wbs_cyc_i wbs_dat_i[0] wbs_dat_i[10]
+ wbs_dat_i[11] wbs_dat_i[12] wbs_dat_i[13] wbs_dat_i[14] wbs_dat_i[15] wbs_dat_i[16]
+ wbs_dat_i[17] wbs_dat_i[18] wbs_dat_i[19] wbs_dat_i[1] wbs_dat_i[20] wbs_dat_i[21]
+ wbs_dat_i[22] wbs_dat_i[23] wbs_dat_i[24] wbs_dat_i[25] wbs_dat_i[26] wbs_dat_i[27]
+ wbs_dat_i[28] wbs_dat_i[29] wbs_dat_i[2] wbs_dat_i[30] wbs_dat_i[31] wbs_dat_i[3]
+ wbs_dat_i[4] wbs_dat_i[5] wbs_dat_i[6] wbs_dat_i[7] wbs_dat_i[8] wbs_dat_i[9] wbs_dat_o[0]
+ wbs_dat_o[10] wbs_dat_o[11] wbs_dat_o[12] wbs_dat_o[13] wbs_dat_o[14] wbs_dat_o[15]
+ wbs_dat_o[16] wbs_dat_o[17] wbs_dat_o[18] wbs_dat_o[19] wbs_dat_o[1] wbs_dat_o[20]
+ wbs_dat_o[21] wbs_dat_o[22] wbs_dat_o[23] wbs_dat_o[24] wbs_dat_o[25] wbs_dat_o[26]
+ wbs_dat_o[27] wbs_dat_o[28] wbs_dat_o[29] wbs_dat_o[2] wbs_dat_o[30] wbs_dat_o[31]
+ wbs_dat_o[3] wbs_dat_o[4] wbs_dat_o[5] wbs_dat_o[6] wbs_dat_o[7] wbs_dat_o[8] wbs_dat_o[9]
+ wbs_sel_i[0] wbs_sel_i[1] wbs_sel_i[2] wbs_sel_i[3] wbs_stb_i wbs_we_i vccd1 vssd1
+ vccd2_uq0 vccd2 vccd2_uq1 vccd2_uq2 vssd2_uq0 vssd2 vssd2_uq1 vssd2_uq2 vdda1_uq0
+ vdda1 vdda1_uq1 vdda1_uq2 vssa1_uq0 vssa1 vssa1_uq1 vssa1_uq2 vdda2_uq0 vdda2 vdda2_uq1
+ vdda2_uq2 vssa2_uq0 vssa2 vssa2_uq1 vssa2_uq2
XFILLER_67_531 vssd1 vssd1 vccd1 vccd1 sky130_fd_sc_hd__decap_12
XFILLER_80_1276 vssd1 vssd1 vccd1 vccd1 sky130_fd_sc_hd__fill_1
XFILLER_95_884 vssd1 vssd1 vccd1 vccd1 sky130_fd_sc_hd__decap_3
XFILLER_27_428 vssd1 vssd1 vccd1 vccd1 sky130_fd_sc_hd__decap_12
X_7963_ _7968_/CLK _6714_/X vssd1 vssd1 vccd1 vccd1 _6645_/A sky130_fd_sc_hd__dfxtp_4
XFILLER_199_208 vssd1 vssd1 vccd1 vccd1 sky130_fd_sc_hd__decap_12
XFILLER_82_556 vssd1 vssd1 vccd1 vccd1 sky130_fd_sc_hd__decap_12
XFILLER_208_581 vssd1 vssd1 vccd1 vccd1 sky130_fd_sc_hd__decap_12
X_6914_ _6846_/A la_data_in[27] _6848_/X vssd1 vssd1 vccd1 vccd1 _6914_/X sky130_fd_sc_hd__a21o_4
XPHY_3109 vssd1 vccd1 sky130_fd_sc_hd__tapvpwrvgnd_1
X_7894_ _7901_/CLK _7894_/D vssd1 vssd1 vccd1 vccd1 _7099_/A sky130_fd_sc_hd__dfxtp_4
XFILLER_23_623 vssd1 vssd1 vccd1 vccd1 sky130_fd_sc_hd__decap_12
XFILLER_39_1145 vssd1 vssd1 vccd1 vccd1 sky130_fd_sc_hd__decap_12
XFILLER_51_932 vssd1 vssd1 vccd1 vccd1 sky130_fd_sc_hd__decap_12
XFILLER_63_792 vssd1 vssd1 vccd1 vccd1 sky130_fd_sc_hd__fill_1
XPHY_2408 vssd1 vccd1 sky130_fd_sc_hd__tapvpwrvgnd_1
X_6845_ _6845_/A _6845_/B vssd1 vssd1 vccd1 vccd1 _6845_/X sky130_fd_sc_hd__and2_4
XPHY_2419 vssd1 vccd1 sky130_fd_sc_hd__tapvpwrvgnd_1
XPHY_1707 vssd1 vccd1 sky130_fd_sc_hd__tapvpwrvgnd_1
XFILLER_74_1069 vssd1 vssd1 vccd1 vccd1 sky130_fd_sc_hd__decap_12
XFILLER_211_757 vssd1 vssd1 vccd1 vccd1 sky130_fd_sc_hd__decap_12
XPHY_1718 vssd1 vccd1 sky130_fd_sc_hd__tapvpwrvgnd_1
XFILLER_196_959 vssd1 vssd1 vccd1 vccd1 sky130_fd_sc_hd__decap_12
X_6776_ _6758_/Y _6759_/Y _6826_/B vssd1 vssd1 vccd1 vccd1 _6777_/B sky130_fd_sc_hd__o21a_4
XPHY_1729 vssd1 vccd1 sky130_fd_sc_hd__tapvpwrvgnd_1
XFILLER_149_831 vssd1 vssd1 vccd1 vccd1 sky130_fd_sc_hd__decap_12
XFILLER_210_245 vssd1 vssd1 vccd1 vccd1 sky130_fd_sc_hd__decap_12
X_3988_ _5706_/A vssd1 vssd1 vccd1 vccd1 _5414_/A sky130_fd_sc_hd__buf_2
X_5727_ _5727_/A _5726_/Y vssd1 vssd1 vccd1 vccd1 _5727_/X sky130_fd_sc_hd__or2_4
XFILLER_176_661 vssd1 vssd1 vccd1 vccd1 sky130_fd_sc_hd__decap_12
XFILLER_109_717 vssd1 vssd1 vccd1 vccd1 sky130_fd_sc_hd__decap_12
XFILLER_164_823 vssd1 vssd1 vccd1 vccd1 sky130_fd_sc_hd__fill_1
XFILLER_163_300 vssd1 vssd1 vccd1 vccd1 sky130_fd_sc_hd__decap_4
XFILLER_136_525 vssd1 vssd1 vccd1 vccd1 sky130_fd_sc_hd__decap_12
XFILLER_202_1069 vssd1 vssd1 vccd1 vccd1 sky130_fd_sc_hd__decap_12
XFILLER_175_171 vssd1 vssd1 vccd1 vccd1 sky130_fd_sc_hd__decap_12
X_5658_ _5599_/X _5603_/X _5599_/X _5603_/X vssd1 vssd1 vccd1 vccd1 _5658_/X sky130_fd_sc_hd__a2bb2o_4
XFILLER_163_322 vssd1 vssd1 vccd1 vccd1 sky130_fd_sc_hd__fill_2
X_4609_ _4538_/X _4549_/X _4551_/Y vssd1 vssd1 vccd1 vccd1 _4609_/X sky130_fd_sc_hd__a21o_4
XFILLER_190_141 vssd1 vssd1 vccd1 vccd1 sky130_fd_sc_hd__decap_12
X_5589_ _5588_/X vssd1 vssd1 vccd1 vccd1 _5589_/Y sky130_fd_sc_hd__inv_2
X_7328_ _7297_/Y _7299_/B _7299_/X _7327_/X vssd1 vssd1 vccd1 vccd1 _7361_/B sky130_fd_sc_hd__o22a_4
XFILLER_46_1105 vssd1 vssd1 vccd1 vccd1 sky130_fd_sc_hd__decap_12
XFILLER_104_422 vssd1 vssd1 vccd1 vccd1 sky130_fd_sc_hd__decap_12
XFILLER_116_282 vssd1 vssd1 vccd1 vccd1 sky130_fd_sc_hd__decap_12
XFILLER_137_1233 vssd1 vssd1 vccd1 vccd1 sky130_fd_sc_hd__decap_12
XFILLER_77_15 vssd1 vssd1 vccd1 vccd1 sky130_fd_sc_hd__decap_8
XFILLER_132_764 vssd1 vssd1 vccd1 vccd1 sky130_fd_sc_hd__decap_12
X_7259_ _7217_/X _7258_/X _7247_/X vssd1 vssd1 vccd1 vccd1 _7259_/Y sky130_fd_sc_hd__a21oi_4
XFILLER_81_1029 vssd1 vssd1 vccd1 vccd1 sky130_fd_sc_hd__decap_8
XFILLER_105_989 vssd1 vssd1 vccd1 vccd1 sky130_fd_sc_hd__decap_8
XFILLER_58_520 vssd1 vssd1 vccd1 vccd1 sky130_fd_sc_hd__decap_12
XFILLER_120_959 vssd1 vssd1 vccd1 vccd1 sky130_fd_sc_hd__decap_3
XFILLER_86_862 vssd1 vssd1 vccd1 vccd1 sky130_fd_sc_hd__decap_12
XFILLER_92_309 vssd1 vssd1 vccd1 vccd1 sky130_fd_sc_hd__decap_4
XFILLER_46_737 vssd1 vssd1 vccd1 vccd1 sky130_fd_sc_hd__decap_4
XFILLER_206_507 vssd1 vssd1 vccd1 vccd1 sky130_fd_sc_hd__decap_12
XPHY_4300 vssd1 vccd1 sky130_fd_sc_hd__tapvpwrvgnd_1
XPHY_4311 vssd1 vccd1 sky130_fd_sc_hd__tapvpwrvgnd_1
XFILLER_172_3 vssd1 vssd1 vccd1 vccd1 sky130_fd_sc_hd__decap_12
XFILLER_2_1232 vssd1 vssd1 vccd1 vccd1 sky130_fd_sc_hd__decap_12
XFILLER_27_940 vssd1 vssd1 vccd1 vccd1 sky130_fd_sc_hd__decap_12
XPHY_4322 vssd1 vccd1 sky130_fd_sc_hd__tapvpwrvgnd_1
XPHY_4333 vssd1 vccd1 sky130_fd_sc_hd__tapvpwrvgnd_1
XPHY_4344 vssd1 vccd1 sky130_fd_sc_hd__tapvpwrvgnd_1
XFILLER_45_269 vssd1 vssd1 vccd1 vccd1 sky130_fd_sc_hd__decap_12
XFILLER_73_578 vssd1 vssd1 vccd1 vccd1 sky130_fd_sc_hd__decap_12
XPHY_4355 vssd1 vccd1 sky130_fd_sc_hd__tapvpwrvgnd_1
XPHY_3610 vssd1 vccd1 sky130_fd_sc_hd__tapvpwrvgnd_1
XPHY_4366 vssd1 vccd1 sky130_fd_sc_hd__tapvpwrvgnd_1
XPHY_3621 vssd1 vccd1 sky130_fd_sc_hd__tapvpwrvgnd_1
XFILLER_42_910 vssd1 vssd1 vccd1 vccd1 sky130_fd_sc_hd__decap_4
XPHY_4377 vssd1 vccd1 sky130_fd_sc_hd__tapvpwrvgnd_1
XPHY_3632 vssd1 vccd1 sky130_fd_sc_hd__tapvpwrvgnd_1
XFILLER_57_1245 vssd1 vssd1 vccd1 vccd1 sky130_fd_sc_hd__decap_12
XPHY_4388 vssd1 vccd1 sky130_fd_sc_hd__tapvpwrvgnd_1
XPHY_3643 vssd1 vccd1 sky130_fd_sc_hd__tapvpwrvgnd_1
XFILLER_60_239 vssd1 vssd1 vccd1 vccd1 sky130_fd_sc_hd__decap_8
XPHY_4399 vssd1 vccd1 sky130_fd_sc_hd__tapvpwrvgnd_1
XPHY_3654 vssd1 vccd1 sky130_fd_sc_hd__tapvpwrvgnd_1
XPHY_3665 vssd1 vccd1 sky130_fd_sc_hd__tapvpwrvgnd_1
XPHY_2920 vssd1 vccd1 sky130_fd_sc_hd__tapvpwrvgnd_1
XFILLER_144_1215 vssd1 vssd1 vccd1 vccd1 sky130_fd_sc_hd__decap_12
XFILLER_198_263 vssd1 vssd1 vccd1 vccd1 sky130_fd_sc_hd__decap_12
XPHY_3676 vssd1 vccd1 sky130_fd_sc_hd__tapvpwrvgnd_1
XPHY_2931 vssd1 vccd1 sky130_fd_sc_hd__tapvpwrvgnd_1
XFILLER_186_414 vssd1 vssd1 vccd1 vccd1 sky130_fd_sc_hd__decap_12
XFILLER_158_105 vssd1 vssd1 vccd1 vccd1 sky130_fd_sc_hd__decap_6
XPHY_2942 vssd1 vccd1 sky130_fd_sc_hd__tapvpwrvgnd_1
XPHY_3687 vssd1 vccd1 sky130_fd_sc_hd__tapvpwrvgnd_1
XFILLER_42_987 vssd1 vssd1 vccd1 vccd1 sky130_fd_sc_hd__decap_12
XPHY_3698 vssd1 vccd1 sky130_fd_sc_hd__tapvpwrvgnd_1
XFILLER_158_127 vssd1 vssd1 vccd1 vccd1 sky130_fd_sc_hd__decap_12
XPHY_2953 vssd1 vccd1 sky130_fd_sc_hd__tapvpwrvgnd_1
XFILLER_201_245 vssd1 vssd1 vccd1 vccd1 sky130_fd_sc_hd__decap_12
XPHY_2964 vssd1 vccd1 sky130_fd_sc_hd__tapvpwrvgnd_1
XFILLER_41_486 vssd1 vssd1 vccd1 vccd1 sky130_fd_sc_hd__fill_2
XPHY_2975 vssd1 vccd1 sky130_fd_sc_hd__tapvpwrvgnd_1
XPHY_2986 vssd1 vccd1 sky130_fd_sc_hd__tapvpwrvgnd_1
XFILLER_139_330 vssd1 vssd1 vccd1 vccd1 sky130_fd_sc_hd__decap_12
XPHY_2997 vssd1 vccd1 sky130_fd_sc_hd__tapvpwrvgnd_1
XFILLER_42_62 vssd1 vssd1 vccd1 vccd1 sky130_fd_sc_hd__decap_12
XFILLER_167_672 vssd1 vssd1 vccd1 vccd1 sky130_fd_sc_hd__decap_12
XFILLER_139_363 vssd1 vssd1 vccd1 vccd1 sky130_fd_sc_hd__decap_3
XFILLER_182_642 vssd1 vssd1 vccd1 vccd1 sky130_fd_sc_hd__decap_4
XFILLER_177_1013 vssd1 vssd1 vccd1 vccd1 sky130_fd_sc_hd__decap_12
XFILLER_155_867 vssd1 vssd1 vccd1 vccd1 sky130_fd_sc_hd__decap_12
XFILLER_154_377 vssd1 vssd1 vccd1 vccd1 sky130_fd_sc_hd__decap_12
XFILLER_170_837 vssd1 vssd1 vccd1 vccd1 sky130_fd_sc_hd__decap_12
XFILLER_142_528 vssd1 vssd1 vccd1 vccd1 sky130_fd_sc_hd__fill_2
XFILLER_181_196 vssd1 vssd1 vccd1 vccd1 sky130_fd_sc_hd__decap_8
XFILLER_107_293 vssd1 vssd1 vccd1 vccd1 sky130_fd_sc_hd__decap_12
XFILLER_64_1227 vssd1 vssd1 vccd1 vccd1 sky130_fd_sc_hd__decap_12
XFILLER_151_1208 vssd1 vssd1 vccd1 vccd1 sky130_fd_sc_hd__decap_12
XFILLER_150_572 vssd1 vssd1 vccd1 vccd1 sky130_fd_sc_hd__decap_8
XFILLER_123_797 vssd1 vssd1 vccd1 vccd1 sky130_fd_sc_hd__decap_8
XFILLER_77_840 vssd1 vssd1 vccd1 vccd1 sky130_fd_sc_hd__decap_12
XFILLER_95_147 vssd1 vssd1 vccd1 vccd1 sky130_fd_sc_hd__decap_12
XFILLER_37_704 vssd1 vssd1 vccd1 vccd1 sky130_fd_sc_hd__fill_2
XFILLER_49_564 vssd1 vssd1 vccd1 vccd1 sky130_fd_sc_hd__decap_12
XFILLER_83_309 vssd1 vssd1 vccd1 vccd1 sky130_fd_sc_hd__decap_12
XFILLER_3_1029 vssd1 vssd1 vccd1 vccd1 sky130_fd_sc_hd__decap_8
XFILLER_64_512 vssd1 vssd1 vccd1 vccd1 sky130_fd_sc_hd__decap_6
XFILLER_76_372 vssd1 vssd1 vccd1 vccd1 sky130_fd_sc_hd__decap_12
XFILLER_209_367 vssd1 vssd1 vccd1 vccd1 sky130_fd_sc_hd__decap_12
XFILLER_190_93 vssd1 vssd1 vccd1 vccd1 sky130_fd_sc_hd__decap_12
XFILLER_188_1142 vssd1 vssd1 vccd1 vccd1 sky130_fd_sc_hd__decap_12
XFILLER_64_556 vssd1 vssd1 vccd1 vccd1 sky130_fd_sc_hd__decap_12
XFILLER_64_589 vssd1 vssd1 vccd1 vccd1 sky130_fd_sc_hd__fill_2
XFILLER_92_898 vssd1 vssd1 vccd1 vccd1 sky130_fd_sc_hd__decap_12
X_4960_ _4671_/X _4672_/X _4671_/X _4672_/X vssd1 vssd1 vccd1 vccd1 _4960_/X sky130_fd_sc_hd__a2bb2o_4
XFILLER_45_770 vssd1 vssd1 vccd1 vccd1 sky130_fd_sc_hd__decap_12
XFILLER_17_483 vssd1 vssd1 vccd1 vccd1 sky130_fd_sc_hd__decap_4
XFILLER_51_228 vssd1 vssd1 vccd1 vccd1 sky130_fd_sc_hd__decap_12
XFILLER_205_562 vssd1 vssd1 vccd1 vccd1 sky130_fd_sc_hd__decap_12
X_3911_ _3911_/A vssd1 vssd1 vccd1 vccd1 _3911_/X sky130_fd_sc_hd__buf_2
X_4891_ _4891_/A _4976_/B vssd1 vssd1 vccd1 vccd1 _4891_/X sky130_fd_sc_hd__or2_4
X_6630_ _6630_/A vssd1 vssd1 vccd1 vccd1 _6632_/A sky130_fd_sc_hd__inv_2
XFILLER_178_959 vssd1 vssd1 vccd1 vccd1 sky130_fd_sc_hd__decap_12
X_3842_ _4398_/A vssd1 vssd1 vccd1 vccd1 _3842_/X sky130_fd_sc_hd__buf_2
XFILLER_34_1020 vssd1 vssd1 vccd1 vccd1 sky130_fd_sc_hd__decap_4
XFILLER_149_149 vssd1 vssd1 vccd1 vccd1 sky130_fd_sc_hd__decap_3
X_6561_ _6580_/A vssd1 vssd1 vccd1 vccd1 _6561_/X sky130_fd_sc_hd__buf_2
X_5512_ _5468_/X _5491_/X _5468_/X _5491_/X vssd1 vssd1 vccd1 vccd1 _5512_/X sky130_fd_sc_hd__a2bb2o_4
X_6492_ _5741_/A _6492_/B vssd1 vssd1 vccd1 vccd1 _6492_/X sky130_fd_sc_hd__or2_4
XFILLER_118_536 vssd1 vssd1 vccd1 vccd1 sky130_fd_sc_hd__decap_4
XFILLER_118_547 vssd1 vssd1 vccd1 vccd1 sky130_fd_sc_hd__decap_12
XFILLER_8_181 vssd1 vssd1 vccd1 vccd1 sky130_fd_sc_hd__decap_12
XFILLER_195_1135 vssd1 vssd1 vccd1 vccd1 sky130_fd_sc_hd__decap_12
X_5443_ _5438_/X _5442_/X _5440_/X vssd1 vssd1 vccd1 vccd1 _5443_/X sky130_fd_sc_hd__o21a_4
XFILLER_172_152 vssd1 vssd1 vccd1 vccd1 sky130_fd_sc_hd__fill_1
XFILLER_105_208 vssd1 vssd1 vccd1 vccd1 sky130_fd_sc_hd__decap_12
XFILLER_133_528 vssd1 vssd1 vccd1 vccd1 sky130_fd_sc_hd__decap_4
XFILLER_172_185 vssd1 vssd1 vccd1 vccd1 sky130_fd_sc_hd__decap_12
X_5374_ _5414_/A _4773_/D _5394_/C _4307_/X vssd1 vssd1 vccd1 vccd1 _5374_/X sky130_fd_sc_hd__o22a_4
X_7113_ _7141_/A _7113_/B vssd1 vssd1 vccd1 vccd1 _7142_/B sky130_fd_sc_hd__or2_4
X_4325_ _4289_/X _4324_/X _4289_/X _4324_/X vssd1 vssd1 vccd1 vccd1 _4325_/X sky130_fd_sc_hd__a2bb2o_4
XFILLER_141_550 vssd1 vssd1 vccd1 vccd1 sky130_fd_sc_hd__fill_1
XFILLER_59_306 vssd1 vssd1 vccd1 vccd1 sky130_fd_sc_hd__decap_12
X_7044_ _7017_/X _7044_/B _7043_/Y vssd1 vssd1 vccd1 vccd1 _7915_/D sky130_fd_sc_hd__and3_4
XFILLER_141_594 vssd1 vssd1 vccd1 vccd1 sky130_fd_sc_hd__decap_12
XFILLER_86_125 vssd1 vssd1 vccd1 vccd1 sky130_fd_sc_hd__decap_8
XFILLER_87_659 vssd1 vssd1 vccd1 vccd1 sky130_fd_sc_hd__decap_12
X_4256_ _5032_/A _4145_/X _3861_/X _4209_/D vssd1 vssd1 vccd1 vccd1 _4256_/X sky130_fd_sc_hd__or4_4
XFILLER_45_1160 vssd1 vssd1 vccd1 vccd1 sky130_fd_sc_hd__decap_12
XFILLER_132_1130 vssd1 vssd1 vccd1 vccd1 sky130_fd_sc_hd__decap_12
XFILLER_28_715 vssd1 vssd1 vccd1 vccd1 sky130_fd_sc_hd__decap_8
XFILLER_67_361 vssd1 vssd1 vccd1 vccd1 sky130_fd_sc_hd__decap_4
XFILLER_68_884 vssd1 vssd1 vccd1 vccd1 sky130_fd_sc_hd__fill_1
X_4187_ _4271_/A _4176_/X _4181_/Y _4180_/X _4186_/X vssd1 vssd1 vccd1 vccd1 _4187_/X
+ sky130_fd_sc_hd__a32o_4
XFILLER_28_726 vssd1 vssd1 vccd1 vccd1 sky130_fd_sc_hd__decap_12
XFILLER_95_681 vssd1 vssd1 vccd1 vccd1 sky130_fd_sc_hd__decap_12
XFILLER_41_1057 vssd1 vssd1 vccd1 vccd1 sky130_fd_sc_hd__decap_12
XFILLER_83_887 vssd1 vssd1 vccd1 vccd1 sky130_fd_sc_hd__decap_4
X_7946_ _7973_/CLK _6826_/X vssd1 vssd1 vccd1 vccd1 _6758_/A sky130_fd_sc_hd__dfxtp_4
XPHY_905 vssd1 vccd1 sky130_fd_sc_hd__tapvpwrvgnd_1
XPHY_2205 vssd1 vccd1 sky130_fd_sc_hd__tapvpwrvgnd_1
XFILLER_179_39 vssd1 vssd1 vccd1 vccd1 sky130_fd_sc_hd__decap_12
XPHY_916 vssd1 vccd1 sky130_fd_sc_hd__tapvpwrvgnd_1
X_7877_ _7848_/CLK _7343_/Y vssd1 vssd1 vccd1 vccd1 io_out[5] sky130_fd_sc_hd__dfxtp_4
XPHY_2216 vssd1 vccd1 sky130_fd_sc_hd__tapvpwrvgnd_1
XPHY_927 vssd1 vccd1 sky130_fd_sc_hd__tapvpwrvgnd_1
XFILLER_211_521 vssd1 vssd1 vccd1 vccd1 sky130_fd_sc_hd__decap_6
XPHY_938 vssd1 vccd1 sky130_fd_sc_hd__tapvpwrvgnd_1
XPHY_2227 vssd1 vccd1 sky130_fd_sc_hd__tapvpwrvgnd_1
XPHY_949 vssd1 vccd1 sky130_fd_sc_hd__tapvpwrvgnd_1
XPHY_2238 vssd1 vccd1 sky130_fd_sc_hd__tapvpwrvgnd_1
XFILLER_168_425 vssd1 vssd1 vccd1 vccd1 sky130_fd_sc_hd__decap_8
XFILLER_11_604 vssd1 vssd1 vccd1 vccd1 sky130_fd_sc_hd__decap_6
XPHY_1504 vssd1 vccd1 sky130_fd_sc_hd__tapvpwrvgnd_1
XPHY_2249 vssd1 vccd1 sky130_fd_sc_hd__tapvpwrvgnd_1
XFILLER_169_959 vssd1 vssd1 vccd1 vccd1 sky130_fd_sc_hd__decap_12
X_6828_ _6773_/X _6827_/X _6819_/X vssd1 vssd1 vccd1 vccd1 _6828_/Y sky130_fd_sc_hd__a21oi_4
XPHY_1515 vssd1 vccd1 sky130_fd_sc_hd__tapvpwrvgnd_1
XFILLER_23_486 vssd1 vssd1 vccd1 vccd1 sky130_fd_sc_hd__fill_2
XFILLER_50_261 vssd1 vssd1 vccd1 vccd1 sky130_fd_sc_hd__decap_12
XPHY_1526 vssd1 vccd1 sky130_fd_sc_hd__tapvpwrvgnd_1
XPHY_1537 vssd1 vccd1 sky130_fd_sc_hd__tapvpwrvgnd_1
XPHY_1548 vssd1 vccd1 sky130_fd_sc_hd__tapvpwrvgnd_1
XFILLER_177_970 vssd1 vssd1 vccd1 vccd1 sky130_fd_sc_hd__decap_6
X_6759_ la_data_in[4] vssd1 vssd1 vccd1 vccd1 _6759_/Y sky130_fd_sc_hd__inv_2
XFILLER_52_1142 vssd1 vssd1 vccd1 vccd1 sky130_fd_sc_hd__decap_12
XPHY_1559 vssd1 vccd1 sky130_fd_sc_hd__tapvpwrvgnd_1
XFILLER_149_661 vssd1 vssd1 vccd1 vccd1 sky130_fd_sc_hd__decap_8
XFILLER_183_428 vssd1 vssd1 vccd1 vccd1 sky130_fd_sc_hd__decap_3
XFILLER_149_672 vssd1 vssd1 vccd1 vccd1 sky130_fd_sc_hd__decap_4
XFILLER_195_27 vssd1 vssd1 vccd1 vccd1 sky130_fd_sc_hd__decap_12
XFILLER_149_683 vssd1 vssd1 vccd1 vccd1 sky130_fd_sc_hd__decap_12
XFILLER_109_525 vssd1 vssd1 vccd1 vccd1 sky130_fd_sc_hd__decap_12
XFILLER_12_32 vssd1 vssd1 vccd1 vccd1 sky130_fd_sc_hd__decap_12
XFILLER_164_642 vssd1 vssd1 vccd1 vccd1 sky130_fd_sc_hd__decap_4
XFILLER_104_1276 vssd1 vssd1 vccd1 vccd1 sky130_fd_sc_hd__fill_1
XFILLER_136_333 vssd1 vssd1 vccd1 vccd1 sky130_fd_sc_hd__decap_3
XFILLER_128_32 vssd1 vssd1 vccd1 vccd1 sky130_fd_sc_hd__decap_12
XFILLER_137_867 vssd1 vssd1 vccd1 vccd1 sky130_fd_sc_hd__decap_12
XFILLER_12_87 vssd1 vssd1 vccd1 vccd1 sky130_fd_sc_hd__decap_4
XFILLER_192_995 vssd1 vssd1 vccd1 vccd1 sky130_fd_sc_hd__decap_12
XFILLER_128_65 vssd1 vssd1 vccd1 vccd1 sky130_fd_sc_hd__decap_12
XFILLER_152_837 vssd1 vssd1 vccd1 vccd1 sky130_fd_sc_hd__decap_12
XFILLER_3_836 vssd1 vssd1 vccd1 vccd1 sky130_fd_sc_hd__fill_1
XFILLER_163_196 vssd1 vssd1 vccd1 vccd1 sky130_fd_sc_hd__decap_12
XFILLER_105_731 vssd1 vssd1 vccd1 vccd1 sky130_fd_sc_hd__fill_1
XFILLER_151_358 vssd1 vssd1 vccd1 vccd1 sky130_fd_sc_hd__decap_8
XFILLER_120_701 vssd1 vssd1 vccd1 vccd1 sky130_fd_sc_hd__fill_1
XFILLER_104_274 vssd1 vssd1 vccd1 vccd1 sky130_fd_sc_hd__fill_1
XFILLER_137_1074 vssd1 vssd1 vccd1 vccd1 sky130_fd_sc_hd__decap_12
XFILLER_77_147 vssd1 vssd1 vccd1 vccd1 sky130_fd_sc_hd__decap_12
XFILLER_58_350 vssd1 vssd1 vccd1 vccd1 sky130_fd_sc_hd__decap_12
XFILLER_150_1252 vssd1 vssd1 vccd1 vccd1 sky130_fd_sc_hd__decap_12
XFILLER_24_1266 vssd1 vssd1 vccd1 vccd1 sky130_fd_sc_hd__decap_8
XFILLER_86_692 vssd1 vssd1 vccd1 vccd1 sky130_fd_sc_hd__decap_8
XFILLER_37_51 vssd1 vssd1 vccd1 vccd1 sky130_fd_sc_hd__decap_8
XFILLER_58_394 vssd1 vssd1 vccd1 vccd1 sky130_fd_sc_hd__decap_3
XFILLER_46_556 vssd1 vssd1 vccd1 vccd1 sky130_fd_sc_hd__decap_12
XFILLER_73_342 vssd1 vssd1 vccd1 vccd1 sky130_fd_sc_hd__decap_12
XFILLER_206_337 vssd1 vssd1 vccd1 vccd1 sky130_fd_sc_hd__decap_12
XFILLER_111_1269 vssd1 vssd1 vccd1 vccd1 sky130_fd_sc_hd__decap_8
XPHY_4130 vssd1 vccd1 sky130_fd_sc_hd__tapvpwrvgnd_1
XFILLER_209_1009 vssd1 vssd1 vccd1 vccd1 sky130_fd_sc_hd__fill_2
XFILLER_74_898 vssd1 vssd1 vccd1 vccd1 sky130_fd_sc_hd__decap_12
XPHY_4141 vssd1 vccd1 sky130_fd_sc_hd__tapvpwrvgnd_1
XPHY_4152 vssd1 vccd1 sky130_fd_sc_hd__tapvpwrvgnd_1
XFILLER_27_781 vssd1 vssd1 vccd1 vccd1 sky130_fd_sc_hd__decap_12
XPHY_4163 vssd1 vccd1 sky130_fd_sc_hd__tapvpwrvgnd_1
XFILLER_61_537 vssd1 vssd1 vccd1 vccd1 sky130_fd_sc_hd__decap_12
XPHY_4174 vssd1 vccd1 sky130_fd_sc_hd__tapvpwrvgnd_1
XPHY_4185 vssd1 vccd1 sky130_fd_sc_hd__tapvpwrvgnd_1
XPHY_3440 vssd1 vccd1 sky130_fd_sc_hd__tapvpwrvgnd_1
XFILLER_202_510 vssd1 vssd1 vccd1 vccd1 sky130_fd_sc_hd__decap_8
XFILLER_183_1050 vssd1 vssd1 vccd1 vccd1 sky130_fd_sc_hd__decap_12
XPHY_3451 vssd1 vccd1 sky130_fd_sc_hd__tapvpwrvgnd_1
XPHY_4196 vssd1 vccd1 sky130_fd_sc_hd__tapvpwrvgnd_1
XFILLER_42_762 vssd1 vssd1 vccd1 vccd1 sky130_fd_sc_hd__fill_1
XPHY_3462 vssd1 vccd1 sky130_fd_sc_hd__tapvpwrvgnd_1
XFILLER_57_1075 vssd1 vssd1 vccd1 vccd1 sky130_fd_sc_hd__decap_12
XPHY_3473 vssd1 vccd1 sky130_fd_sc_hd__tapvpwrvgnd_1
XPHY_3484 vssd1 vccd1 sky130_fd_sc_hd__tapvpwrvgnd_1
XPHY_2750 vssd1 vccd1 sky130_fd_sc_hd__tapvpwrvgnd_1